version 2
run VehicleKHOPCANetwork-0-20180510-22:31:48-8972
attr configname VehicleKHOPCANetwork
attr datetime 20180510-22:31:48
attr experiment VehicleKHOPCANetwork
attr inifile omnetpp.ini
attr iterationvars ""
attr iterationvarsf ""
attr measurement ""
attr network VehicleNetwork
attr processid 8972
attr repetition 0
attr replication #0
attr resultdir results
attr runnumber 0
attr seedset 0
param *.numHosts 20
param *.host*.wlan[*].typename "\"IdealWirelessNic\""
param *.host*.wlan[*].mac.useAck false
param *.host*.wlan[*].mac.fullDuplex false
param *.host*.wlan[*].radio.transmitter.communicationRange 200m
param *.host*.wlan[*].radio.receiver.ignoreInterference true
param *.host*.**.bitrate 1Mbps
param *.visualizer.interfaceTableVisualizer.displayInterfaceTables false
param *.visualizer.interfaceTableVisualizer.interfaceFilter "\"wlan*\""
param *.visualizer.interfaceTableVisualizer.format "\"%N\\n%n\""
param *.visualizer.interfaceTableVisualizer.displacementHint "\"left\""
param *.visualizer.sceneVisualizer.descriptionFigure "\"title\""
param *.visualizer.linkBreakVisualizer.displayLinkBreaks true
param *.visualizer.packetDropVisualizer.displayPacketDrops true
param *.visualizer.packetDropVisualizer.packetFilter "\"UDPData*\""
param *.visualizer.mediumVisualizer.signalPropagationAnimationSpeed 0.000001
param *.visualizer.mediumVisualizer.signalTransmissionAnimationSpeed 0.0005
param *.visualizer.mediumVisualizer.displayTransmissions false
param *.visualizer.mediumVisualizer.displayReceptions false
param *.visualizer.mediumVisualizer.displaySignals false
param *.configurator.config "xml(\"<config><interface hosts='**' address='10.0.0.x' netmask='255.255.255.0'/><autoroute metric='errorRate'/></config>\")"
param *.configurator.optimizeRoutes false
param *.host*.routingTable.netmaskRoutes "\"\""
param *.configurator.addStaticRoutes false
param *.host*.wlan[0].radio.displayCommunicationRange false
param *.host*.wlan[0].radio.energyConsumerType "\"StateBasedEpEnergyConsumer\""
param **.host*.energyStorageType "\"SimpleEpEnergyStorage\""
param **.host*.energyStorage.nominalCapacity 1J
param **.host[*].energyStorage.initialCapacity "uniform(index * 0.05J, this.nominalCapacity)"
param *.osgEarthScene.scene "\"../osg-earth/boston.earth\""
param *.playgroundLatitude 42.358864
param *.playgroundLongitude -71.071226
param *.playgroundWidth 500m
param *.playgroundHeight 300m
param *.channelController.showConnections false
param *.channelController.connectionColor "\"#0000FF00\""
param *.host*.modelURL "\"../osg-earth/dumptruck.osgb.3e-1.scale\""
param *.host*.modelColor "\"#aa6666ff\""
param *.host*.labelColor "\"#ff000000\""
param *.host[*].trailLength 20
param *.host*.showTxRange false
param *.host*.txRange 70m
param *.host*.speed 10mps
param *.host[0..6].startTime "(index * 5s)"
param *.host[7..19].trackFile "\"../osg-earth/boston1.track\""
param *.host[7..19].startTime "((index-5) * 10s)"
param *.host[0..6].trackFile "\"../osg-earth/boston0.track\""
param **.host[*].khopca.updateInterval 3
param **.constraintAreaMinX 100m
param **.constraintAreaMinY 50m
param **.constraintAreaMinZ 0m
param **.constraintAreaMaxX 1000m
param **.constraintAreaMaxY 950m
param **.constraintAreaMaxZ 10m
param **.hasStatus true

vector 0 VehicleNetwork.host[0].energyStorage residualEnergyCapacity:vector ETV
attr interpolationmode linear
attr source residualEnergyCapacityChanged
attr title "Residual energy capacity, vector"
vector 1 VehicleNetwork.host[0].wlan[0].queue queueLength:vector ETV
attr interpolationmode sample-hold
attr title "queue length, vector"
vector 2 VehicleNetwork.host[1].energyStorage residualEnergyCapacity:vector ETV
attr interpolationmode linear
attr source residualEnergyCapacityChanged
attr title "Residual energy capacity, vector"
vector 3 VehicleNetwork.host[1].wlan[0].queue queueLength:vector ETV
attr interpolationmode sample-hold
attr title "queue length, vector"
vector 4 VehicleNetwork.host[2].energyStorage residualEnergyCapacity:vector ETV
attr interpolationmode linear
attr source residualEnergyCapacityChanged
attr title "Residual energy capacity, vector"
vector 5 VehicleNetwork.host[2].wlan[0].queue queueLength:vector ETV
attr interpolationmode sample-hold
attr title "queue length, vector"
vector 6 VehicleNetwork.host[3].energyStorage residualEnergyCapacity:vector ETV
attr interpolationmode linear
attr source residualEnergyCapacityChanged
attr title "Residual energy capacity, vector"
vector 7 VehicleNetwork.host[3].wlan[0].queue queueLength:vector ETV
attr interpolationmode sample-hold
attr title "queue length, vector"
vector 8 VehicleNetwork.host[4].energyStorage residualEnergyCapacity:vector ETV
attr interpolationmode linear
attr source residualEnergyCapacityChanged
attr title "Residual energy capacity, vector"
vector 9 VehicleNetwork.host[4].wlan[0].queue queueLength:vector ETV
attr interpolationmode sample-hold
attr title "queue length, vector"
vector 10 VehicleNetwork.host[5].energyStorage residualEnergyCapacity:vector ETV
attr interpolationmode linear
attr source residualEnergyCapacityChanged
attr title "Residual energy capacity, vector"
vector 11 VehicleNetwork.host[5].wlan[0].queue queueLength:vector ETV
attr interpolationmode sample-hold
attr title "queue length, vector"
vector 12 VehicleNetwork.host[6].energyStorage residualEnergyCapacity:vector ETV
attr interpolationmode linear
attr source residualEnergyCapacityChanged
attr title "Residual energy capacity, vector"
vector 13 VehicleNetwork.host[6].wlan[0].queue queueLength:vector ETV
attr interpolationmode sample-hold
attr title "queue length, vector"
vector 14 VehicleNetwork.host[7].energyStorage residualEnergyCapacity:vector ETV
attr interpolationmode linear
attr source residualEnergyCapacityChanged
attr title "Residual energy capacity, vector"
vector 15 VehicleNetwork.host[7].wlan[0].queue queueLength:vector ETV
attr interpolationmode sample-hold
attr title "queue length, vector"
vector 16 VehicleNetwork.host[8].energyStorage residualEnergyCapacity:vector ETV
attr interpolationmode linear
attr source residualEnergyCapacityChanged
attr title "Residual energy capacity, vector"
vector 17 VehicleNetwork.host[8].wlan[0].queue queueLength:vector ETV
attr interpolationmode sample-hold
attr title "queue length, vector"
vector 18 VehicleNetwork.host[9].energyStorage residualEnergyCapacity:vector ETV
attr interpolationmode linear
attr source residualEnergyCapacityChanged
attr title "Residual energy capacity, vector"
vector 19 VehicleNetwork.host[9].wlan[0].queue queueLength:vector ETV
attr interpolationmode sample-hold
attr title "queue length, vector"
vector 20 VehicleNetwork.host[10].energyStorage residualEnergyCapacity:vector ETV
attr interpolationmode linear
attr source residualEnergyCapacityChanged
attr title "Residual energy capacity, vector"
vector 21 VehicleNetwork.host[10].wlan[0].queue queueLength:vector ETV
attr interpolationmode sample-hold
attr title "queue length, vector"
vector 22 VehicleNetwork.host[11].energyStorage residualEnergyCapacity:vector ETV
attr interpolationmode linear
attr source residualEnergyCapacityChanged
attr title "Residual energy capacity, vector"
vector 23 VehicleNetwork.host[11].wlan[0].queue queueLength:vector ETV
attr interpolationmode sample-hold
attr title "queue length, vector"
vector 24 VehicleNetwork.host[12].energyStorage residualEnergyCapacity:vector ETV
attr interpolationmode linear
attr source residualEnergyCapacityChanged
attr title "Residual energy capacity, vector"
vector 25 VehicleNetwork.host[12].wlan[0].queue queueLength:vector ETV
attr interpolationmode sample-hold
attr title "queue length, vector"
vector 26 VehicleNetwork.host[13].energyStorage residualEnergyCapacity:vector ETV
attr interpolationmode linear
attr source residualEnergyCapacityChanged
attr title "Residual energy capacity, vector"
vector 27 VehicleNetwork.host[13].wlan[0].queue queueLength:vector ETV
attr interpolationmode sample-hold
attr title "queue length, vector"
vector 28 VehicleNetwork.host[14].energyStorage residualEnergyCapacity:vector ETV
attr interpolationmode linear
attr source residualEnergyCapacityChanged
attr title "Residual energy capacity, vector"
vector 29 VehicleNetwork.host[14].wlan[0].queue queueLength:vector ETV
attr interpolationmode sample-hold
attr title "queue length, vector"
vector 30 VehicleNetwork.host[15].energyStorage residualEnergyCapacity:vector ETV
attr interpolationmode linear
attr source residualEnergyCapacityChanged
attr title "Residual energy capacity, vector"
vector 31 VehicleNetwork.host[15].wlan[0].queue queueLength:vector ETV
attr interpolationmode sample-hold
attr title "queue length, vector"
vector 32 VehicleNetwork.host[16].energyStorage residualEnergyCapacity:vector ETV
attr interpolationmode linear
attr source residualEnergyCapacityChanged
attr title "Residual energy capacity, vector"
vector 33 VehicleNetwork.host[16].wlan[0].queue queueLength:vector ETV
attr interpolationmode sample-hold
attr title "queue length, vector"
vector 34 VehicleNetwork.host[17].energyStorage residualEnergyCapacity:vector ETV
attr interpolationmode linear
attr source residualEnergyCapacityChanged
attr title "Residual energy capacity, vector"
vector 35 VehicleNetwork.host[17].wlan[0].queue queueLength:vector ETV
attr interpolationmode sample-hold
attr title "queue length, vector"
vector 36 VehicleNetwork.host[18].energyStorage residualEnergyCapacity:vector ETV
attr interpolationmode linear
attr source residualEnergyCapacityChanged
attr title "Residual energy capacity, vector"
vector 37 VehicleNetwork.host[18].wlan[0].queue queueLength:vector ETV
attr interpolationmode sample-hold
attr title "queue length, vector"
vector 38 VehicleNetwork.host[19].energyStorage residualEnergyCapacity:vector ETV
attr interpolationmode linear
attr source residualEnergyCapacityChanged
attr title "Residual energy capacity, vector"
vector 39 VehicleNetwork.host[19].wlan[0].queue queueLength:vector ETV
attr interpolationmode sample-hold
attr title "queue length, vector"
vector 40 VehicleNetwork.host[0].energyStorage powerConsumption:vector ETV
attr interpolationmode sample-hold
attr source powerConsumptionChanged
attr title "Power consumption, vector"
vector 41 VehicleNetwork.host[1].energyStorage powerConsumption:vector ETV
attr interpolationmode sample-hold
attr source powerConsumptionChanged
attr title "Power consumption, vector"
vector 42 VehicleNetwork.host[2].energyStorage powerConsumption:vector ETV
attr interpolationmode sample-hold
attr source powerConsumptionChanged
attr title "Power consumption, vector"
vector 43 VehicleNetwork.host[3].energyStorage powerConsumption:vector ETV
attr interpolationmode sample-hold
attr source powerConsumptionChanged
attr title "Power consumption, vector"
vector 44 VehicleNetwork.host[4].energyStorage powerConsumption:vector ETV
attr interpolationmode sample-hold
attr source powerConsumptionChanged
attr title "Power consumption, vector"
vector 45 VehicleNetwork.host[5].energyStorage powerConsumption:vector ETV
attr interpolationmode sample-hold
attr source powerConsumptionChanged
attr title "Power consumption, vector"
vector 46 VehicleNetwork.host[6].energyStorage powerConsumption:vector ETV
attr interpolationmode sample-hold
attr source powerConsumptionChanged
attr title "Power consumption, vector"
vector 47 VehicleNetwork.host[7].energyStorage powerConsumption:vector ETV
attr interpolationmode sample-hold
attr source powerConsumptionChanged
attr title "Power consumption, vector"
vector 48 VehicleNetwork.host[8].energyStorage powerConsumption:vector ETV
attr interpolationmode sample-hold
attr source powerConsumptionChanged
attr title "Power consumption, vector"
vector 49 VehicleNetwork.host[9].energyStorage powerConsumption:vector ETV
attr interpolationmode sample-hold
attr source powerConsumptionChanged
attr title "Power consumption, vector"
vector 50 VehicleNetwork.host[10].energyStorage powerConsumption:vector ETV
attr interpolationmode sample-hold
attr source powerConsumptionChanged
attr title "Power consumption, vector"
vector 51 VehicleNetwork.host[11].energyStorage powerConsumption:vector ETV
attr interpolationmode sample-hold
attr source powerConsumptionChanged
attr title "Power consumption, vector"
vector 52 VehicleNetwork.host[12].energyStorage powerConsumption:vector ETV
attr interpolationmode sample-hold
attr source powerConsumptionChanged
attr title "Power consumption, vector"
vector 53 VehicleNetwork.host[13].energyStorage powerConsumption:vector ETV
attr interpolationmode sample-hold
attr source powerConsumptionChanged
attr title "Power consumption, vector"
vector 54 VehicleNetwork.host[14].energyStorage powerConsumption:vector ETV
attr interpolationmode sample-hold
attr source powerConsumptionChanged
attr title "Power consumption, vector"
vector 55 VehicleNetwork.host[15].energyStorage powerConsumption:vector ETV
attr interpolationmode sample-hold
attr source powerConsumptionChanged
attr title "Power consumption, vector"
vector 56 VehicleNetwork.host[16].energyStorage powerConsumption:vector ETV
attr interpolationmode sample-hold
attr source powerConsumptionChanged
attr title "Power consumption, vector"
vector 57 VehicleNetwork.host[17].energyStorage powerConsumption:vector ETV
attr interpolationmode sample-hold
attr source powerConsumptionChanged
attr title "Power consumption, vector"
vector 58 VehicleNetwork.host[18].energyStorage powerConsumption:vector ETV
attr interpolationmode sample-hold
attr source powerConsumptionChanged
attr title "Power consumption, vector"
vector 59 VehicleNetwork.host[19].energyStorage powerConsumption:vector ETV
attr interpolationmode sample-hold
attr source powerConsumptionChanged
attr title "Power consumption, vector"
vector 60 VehicleNetwork.host[0].wlan[0].radio radioMode:vector ETV
attr interpolationmode sample-hold
attr source radioModeChanged
attr title "Radio mode, vector"
vector 61 VehicleNetwork.host[0].wlan[0].radio.energyConsumer powerConsumption:vector ETV
attr interpolationmode sample-hold
attr source powerConsumptionChanged
attr title "Power consumption, vector"
vector 62 VehicleNetwork.host[1].wlan[0].radio radioMode:vector ETV
attr interpolationmode sample-hold
attr source radioModeChanged
attr title "Radio mode, vector"
vector 63 VehicleNetwork.host[1].wlan[0].radio.energyConsumer powerConsumption:vector ETV
attr interpolationmode sample-hold
attr source powerConsumptionChanged
attr title "Power consumption, vector"
vector 64 VehicleNetwork.host[2].wlan[0].radio radioMode:vector ETV
attr interpolationmode sample-hold
attr source radioModeChanged
attr title "Radio mode, vector"
vector 65 VehicleNetwork.host[2].wlan[0].radio.energyConsumer powerConsumption:vector ETV
attr interpolationmode sample-hold
attr source powerConsumptionChanged
attr title "Power consumption, vector"
vector 66 VehicleNetwork.host[3].wlan[0].radio radioMode:vector ETV
attr interpolationmode sample-hold
attr source radioModeChanged
attr title "Radio mode, vector"
vector 67 VehicleNetwork.host[3].wlan[0].radio.energyConsumer powerConsumption:vector ETV
attr interpolationmode sample-hold
attr source powerConsumptionChanged
attr title "Power consumption, vector"
vector 68 VehicleNetwork.host[4].wlan[0].radio radioMode:vector ETV
attr interpolationmode sample-hold
attr source radioModeChanged
attr title "Radio mode, vector"
vector 69 VehicleNetwork.host[4].wlan[0].radio.energyConsumer powerConsumption:vector ETV
attr interpolationmode sample-hold
attr source powerConsumptionChanged
attr title "Power consumption, vector"
vector 70 VehicleNetwork.host[5].wlan[0].radio radioMode:vector ETV
attr interpolationmode sample-hold
attr source radioModeChanged
attr title "Radio mode, vector"
vector 71 VehicleNetwork.host[5].wlan[0].radio.energyConsumer powerConsumption:vector ETV
attr interpolationmode sample-hold
attr source powerConsumptionChanged
attr title "Power consumption, vector"
vector 72 VehicleNetwork.host[6].wlan[0].radio radioMode:vector ETV
attr interpolationmode sample-hold
attr source radioModeChanged
attr title "Radio mode, vector"
vector 73 VehicleNetwork.host[6].wlan[0].radio.energyConsumer powerConsumption:vector ETV
attr interpolationmode sample-hold
attr source powerConsumptionChanged
attr title "Power consumption, vector"
vector 74 VehicleNetwork.host[7].wlan[0].radio radioMode:vector ETV
attr interpolationmode sample-hold
attr source radioModeChanged
attr title "Radio mode, vector"
vector 75 VehicleNetwork.host[7].wlan[0].radio.energyConsumer powerConsumption:vector ETV
attr interpolationmode sample-hold
attr source powerConsumptionChanged
attr title "Power consumption, vector"
vector 76 VehicleNetwork.host[8].wlan[0].radio radioMode:vector ETV
attr interpolationmode sample-hold
attr source radioModeChanged
attr title "Radio mode, vector"
vector 77 VehicleNetwork.host[8].wlan[0].radio.energyConsumer powerConsumption:vector ETV
attr interpolationmode sample-hold
attr source powerConsumptionChanged
attr title "Power consumption, vector"
vector 78 VehicleNetwork.host[9].wlan[0].radio radioMode:vector ETV
attr interpolationmode sample-hold
attr source radioModeChanged
attr title "Radio mode, vector"
vector 79 VehicleNetwork.host[9].wlan[0].radio.energyConsumer powerConsumption:vector ETV
attr interpolationmode sample-hold
attr source powerConsumptionChanged
attr title "Power consumption, vector"
vector 80 VehicleNetwork.host[10].wlan[0].radio radioMode:vector ETV
attr interpolationmode sample-hold
attr source radioModeChanged
attr title "Radio mode, vector"
vector 81 VehicleNetwork.host[10].wlan[0].radio.energyConsumer powerConsumption:vector ETV
attr interpolationmode sample-hold
attr source powerConsumptionChanged
attr title "Power consumption, vector"
vector 82 VehicleNetwork.host[11].wlan[0].radio radioMode:vector ETV
attr interpolationmode sample-hold
attr source radioModeChanged
attr title "Radio mode, vector"
vector 83 VehicleNetwork.host[11].wlan[0].radio.energyConsumer powerConsumption:vector ETV
attr interpolationmode sample-hold
attr source powerConsumptionChanged
attr title "Power consumption, vector"
vector 84 VehicleNetwork.host[12].wlan[0].radio radioMode:vector ETV
attr interpolationmode sample-hold
attr source radioModeChanged
attr title "Radio mode, vector"
vector 85 VehicleNetwork.host[12].wlan[0].radio.energyConsumer powerConsumption:vector ETV
attr interpolationmode sample-hold
attr source powerConsumptionChanged
attr title "Power consumption, vector"
vector 86 VehicleNetwork.host[13].wlan[0].radio radioMode:vector ETV
attr interpolationmode sample-hold
attr source radioModeChanged
attr title "Radio mode, vector"
vector 87 VehicleNetwork.host[13].wlan[0].radio.energyConsumer powerConsumption:vector ETV
attr interpolationmode sample-hold
attr source powerConsumptionChanged
attr title "Power consumption, vector"
vector 88 VehicleNetwork.host[14].wlan[0].radio radioMode:vector ETV
attr interpolationmode sample-hold
attr source radioModeChanged
attr title "Radio mode, vector"
vector 89 VehicleNetwork.host[14].wlan[0].radio.energyConsumer powerConsumption:vector ETV
attr interpolationmode sample-hold
attr source powerConsumptionChanged
attr title "Power consumption, vector"
vector 90 VehicleNetwork.host[15].wlan[0].radio radioMode:vector ETV
attr interpolationmode sample-hold
attr source radioModeChanged
attr title "Radio mode, vector"
vector 91 VehicleNetwork.host[15].wlan[0].radio.energyConsumer powerConsumption:vector ETV
attr interpolationmode sample-hold
attr source powerConsumptionChanged
attr title "Power consumption, vector"
vector 92 VehicleNetwork.host[16].wlan[0].radio radioMode:vector ETV
attr interpolationmode sample-hold
attr source radioModeChanged
attr title "Radio mode, vector"
vector 93 VehicleNetwork.host[16].wlan[0].radio.energyConsumer powerConsumption:vector ETV
attr interpolationmode sample-hold
attr source powerConsumptionChanged
attr title "Power consumption, vector"
vector 94 VehicleNetwork.host[17].wlan[0].radio radioMode:vector ETV
attr interpolationmode sample-hold
attr source radioModeChanged
attr title "Radio mode, vector"
vector 95 VehicleNetwork.host[17].wlan[0].radio.energyConsumer powerConsumption:vector ETV
attr interpolationmode sample-hold
attr source powerConsumptionChanged
attr title "Power consumption, vector"
vector 96 VehicleNetwork.host[18].wlan[0].radio radioMode:vector ETV
attr interpolationmode sample-hold
attr source radioModeChanged
attr title "Radio mode, vector"
vector 97 VehicleNetwork.host[18].wlan[0].radio.energyConsumer powerConsumption:vector ETV
attr interpolationmode sample-hold
attr source powerConsumptionChanged
attr title "Power consumption, vector"
vector 98 VehicleNetwork.host[19].wlan[0].radio radioMode:vector ETV
attr interpolationmode sample-hold
attr source radioModeChanged
attr title "Radio mode, vector"
vector 99 VehicleNetwork.host[19].wlan[0].radio.energyConsumer powerConsumption:vector ETV
attr interpolationmode sample-hold
attr source powerConsumptionChanged
attr title "Power consumption, vector"
vector 100 VehicleNetwork.host[0].wlan[0].radio receptionState:vector ETV
attr interpolationmode sample-hold
attr source receptionStateChanged
attr title "Radio reception state, vector"
vector 101 VehicleNetwork.host[1].wlan[0].radio receptionState:vector ETV
attr interpolationmode sample-hold
attr source receptionStateChanged
attr title "Radio reception state, vector"
vector 102 VehicleNetwork.host[2].wlan[0].radio receptionState:vector ETV
attr interpolationmode sample-hold
attr source receptionStateChanged
attr title "Radio reception state, vector"
vector 103 VehicleNetwork.host[3].wlan[0].radio receptionState:vector ETV
attr interpolationmode sample-hold
attr source receptionStateChanged
attr title "Radio reception state, vector"
vector 104 VehicleNetwork.host[4].wlan[0].radio receptionState:vector ETV
attr interpolationmode sample-hold
attr source receptionStateChanged
attr title "Radio reception state, vector"
vector 105 VehicleNetwork.host[5].wlan[0].radio receptionState:vector ETV
attr interpolationmode sample-hold
attr source receptionStateChanged
attr title "Radio reception state, vector"
vector 106 VehicleNetwork.host[6].wlan[0].radio receptionState:vector ETV
attr interpolationmode sample-hold
attr source receptionStateChanged
attr title "Radio reception state, vector"
vector 107 VehicleNetwork.host[7].wlan[0].radio receptionState:vector ETV
attr interpolationmode sample-hold
attr source receptionStateChanged
attr title "Radio reception state, vector"
vector 108 VehicleNetwork.host[8].wlan[0].radio receptionState:vector ETV
attr interpolationmode sample-hold
attr source receptionStateChanged
attr title "Radio reception state, vector"
vector 109 VehicleNetwork.host[9].wlan[0].radio receptionState:vector ETV
attr interpolationmode sample-hold
attr source receptionStateChanged
attr title "Radio reception state, vector"
vector 110 VehicleNetwork.host[10].wlan[0].radio receptionState:vector ETV
attr interpolationmode sample-hold
attr source receptionStateChanged
attr title "Radio reception state, vector"
vector 111 VehicleNetwork.host[11].wlan[0].radio receptionState:vector ETV
attr interpolationmode sample-hold
attr source receptionStateChanged
attr title "Radio reception state, vector"
vector 112 VehicleNetwork.host[12].wlan[0].radio receptionState:vector ETV
attr interpolationmode sample-hold
attr source receptionStateChanged
attr title "Radio reception state, vector"
vector 113 VehicleNetwork.host[13].wlan[0].radio receptionState:vector ETV
attr interpolationmode sample-hold
attr source receptionStateChanged
attr title "Radio reception state, vector"
vector 114 VehicleNetwork.host[14].wlan[0].radio receptionState:vector ETV
attr interpolationmode sample-hold
attr source receptionStateChanged
attr title "Radio reception state, vector"
vector 115 VehicleNetwork.host[15].wlan[0].radio receptionState:vector ETV
attr interpolationmode sample-hold
attr source receptionStateChanged
attr title "Radio reception state, vector"
vector 116 VehicleNetwork.host[16].wlan[0].radio receptionState:vector ETV
attr interpolationmode sample-hold
attr source receptionStateChanged
attr title "Radio reception state, vector"
vector 117 VehicleNetwork.host[17].wlan[0].radio receptionState:vector ETV
attr interpolationmode sample-hold
attr source receptionStateChanged
attr title "Radio reception state, vector"
vector 118 VehicleNetwork.host[18].wlan[0].radio receptionState:vector ETV
attr interpolationmode sample-hold
attr source receptionStateChanged
attr title "Radio reception state, vector"
vector 119 VehicleNetwork.host[19].wlan[0].radio receptionState:vector ETV
attr interpolationmode sample-hold
attr source receptionStateChanged
attr title "Radio reception state, vector"
vector 120 VehicleNetwork.host[6].wlan[0].queue rcvdPk:vector(packetBytes) ETV
attr interpolationmode none
attr title "received packets, vector(packetBytes)"
vector 121 VehicleNetwork.host[6].wlan[0].queue queueingTime:vector ETV
attr interpolationmode none
attr title "queueing time, vector"
vector 122 VehicleNetwork.host[6].wlan[0].mac rcvdPkFromHL:vector(packetBytes) ETV
attr interpolationmode none
attr source packetReceivedFromUpper
attr title "packets received from higher layer, vector(packetBytes)"
vector 123 VehicleNetwork.host[6].wlan[0].radio transmissionState:vector ETV
attr interpolationmode sample-hold
attr source transmissionStateChanged
attr title "Radio transmission state, vector"
vector 124 VehicleNetwork.host[6].wlan[0].mac sentDownPk:vector(packetBytes) ETV
attr interpolationmode none
attr source packetSentToLower
attr title "packets sent to lower layer, vector(packetBytes)"
vector 125 VehicleNetwork.host[7].wlan[0].mac rcvdPkFromLL:vector(packetBytes) ETV
attr interpolationmode none
attr source packetReceivedFromLower
attr title "packets received from lower layer, vector(packetBytes)"
vector 126 VehicleNetwork.host[7].wlan[0].mac passedUpPk:vector(packetBytes) ETV
attr interpolationmode none
attr source packetSentToUpper
attr title "packets passed to higher layer, vector(packetBytes)"
vector 127 VehicleNetwork.host[4].wlan[0].mac rcvdPkFromLL:vector(packetBytes) ETV
attr interpolationmode none
attr source packetReceivedFromLower
attr title "packets received from lower layer, vector(packetBytes)"
vector 128 VehicleNetwork.host[4].wlan[0].mac passedUpPk:vector(packetBytes) ETV
attr interpolationmode none
attr source packetSentToUpper
attr title "packets passed to higher layer, vector(packetBytes)"
vector 129 VehicleNetwork.host[17].wlan[0].mac rcvdPkFromLL:vector(packetBytes) ETV
attr interpolationmode none
attr source packetReceivedFromLower
attr title "packets received from lower layer, vector(packetBytes)"
vector 130 VehicleNetwork.host[17].wlan[0].mac passedUpPk:vector(packetBytes) ETV
attr interpolationmode none
attr source packetSentToUpper
attr title "packets passed to higher layer, vector(packetBytes)"
vector 131 VehicleNetwork.host[4].wlan[0].queue rcvdPk:vector(packetBytes) ETV
attr interpolationmode none
attr title "received packets, vector(packetBytes)"
vector 132 VehicleNetwork.host[4].wlan[0].queue queueingTime:vector ETV
attr interpolationmode none
attr title "queueing time, vector"
vector 133 VehicleNetwork.host[4].wlan[0].mac rcvdPkFromHL:vector(packetBytes) ETV
attr interpolationmode none
attr source packetReceivedFromUpper
attr title "packets received from higher layer, vector(packetBytes)"
vector 134 VehicleNetwork.host[4].wlan[0].radio transmissionState:vector ETV
attr interpolationmode sample-hold
attr source transmissionStateChanged
attr title "Radio transmission state, vector"
vector 135 VehicleNetwork.host[4].wlan[0].mac sentDownPk:vector(packetBytes) ETV
attr interpolationmode none
attr source packetSentToLower
attr title "packets sent to lower layer, vector(packetBytes)"
vector 136 VehicleNetwork.host[14].wlan[0].mac rcvdPkFromLL:vector(packetBytes) ETV
attr interpolationmode none
attr source packetReceivedFromLower
attr title "packets received from lower layer, vector(packetBytes)"
vector 137 VehicleNetwork.host[14].wlan[0].mac passedUpPk:vector(packetBytes) ETV
attr interpolationmode none
attr source packetSentToUpper
attr title "packets passed to higher layer, vector(packetBytes)"
vector 138 VehicleNetwork.host[6].wlan[0].mac rcvdPkFromLL:vector(packetBytes) ETV
attr interpolationmode none
attr source packetReceivedFromLower
attr title "packets received from lower layer, vector(packetBytes)"
vector 139 VehicleNetwork.host[6].wlan[0].mac passedUpPk:vector(packetBytes) ETV
attr interpolationmode none
attr source packetSentToUpper
attr title "packets passed to higher layer, vector(packetBytes)"
vector 140 VehicleNetwork.host[1].wlan[0].mac rcvdPkFromLL:vector(packetBytes) ETV
attr interpolationmode none
attr source packetReceivedFromLower
attr title "packets received from lower layer, vector(packetBytes)"
vector 141 VehicleNetwork.host[1].wlan[0].mac passedUpPk:vector(packetBytes) ETV
attr interpolationmode none
attr source packetSentToUpper
attr title "packets passed to higher layer, vector(packetBytes)"
vector 142 VehicleNetwork.host[5].wlan[0].queue rcvdPk:vector(packetBytes) ETV
attr interpolationmode none
attr title "received packets, vector(packetBytes)"
vector 143 VehicleNetwork.host[5].wlan[0].queue queueingTime:vector ETV
attr interpolationmode none
attr title "queueing time, vector"
vector 144 VehicleNetwork.host[5].wlan[0].mac rcvdPkFromHL:vector(packetBytes) ETV
attr interpolationmode none
attr source packetReceivedFromUpper
attr title "packets received from higher layer, vector(packetBytes)"
vector 145 VehicleNetwork.host[5].wlan[0].radio transmissionState:vector ETV
attr interpolationmode sample-hold
attr source transmissionStateChanged
attr title "Radio transmission state, vector"
vector 146 VehicleNetwork.host[5].wlan[0].mac sentDownPk:vector(packetBytes) ETV
attr interpolationmode none
attr source packetSentToLower
attr title "packets sent to lower layer, vector(packetBytes)"
vector 147 VehicleNetwork.host[13].wlan[0].mac rcvdPkFromLL:vector(packetBytes) ETV
attr interpolationmode none
attr source packetReceivedFromLower
attr title "packets received from lower layer, vector(packetBytes)"
vector 148 VehicleNetwork.host[13].wlan[0].mac passedUpPk:vector(packetBytes) ETV
attr interpolationmode none
attr source packetSentToUpper
attr title "packets passed to higher layer, vector(packetBytes)"
vector 149 VehicleNetwork.host[12].wlan[0].mac rcvdPkFromLL:vector(packetBytes) ETV
attr interpolationmode none
attr source packetReceivedFromLower
attr title "packets received from lower layer, vector(packetBytes)"
vector 150 VehicleNetwork.host[12].wlan[0].mac passedUpPk:vector(packetBytes) ETV
attr interpolationmode none
attr source packetSentToUpper
attr title "packets passed to higher layer, vector(packetBytes)"
vector 151 VehicleNetwork.host[9].wlan[0].mac rcvdPkFromLL:vector(packetBytes) ETV
attr interpolationmode none
attr source packetReceivedFromLower
attr title "packets received from lower layer, vector(packetBytes)"
vector 152 VehicleNetwork.host[9].wlan[0].mac passedUpPk:vector(packetBytes) ETV
attr interpolationmode none
attr source packetSentToUpper
attr title "packets passed to higher layer, vector(packetBytes)"
vector 153 VehicleNetwork.host[2].wlan[0].mac rcvdPkFromLL:vector(packetBytes) ETV
attr interpolationmode none
attr source packetReceivedFromLower
attr title "packets received from lower layer, vector(packetBytes)"
vector 154 VehicleNetwork.host[2].wlan[0].mac passedUpPk:vector(packetBytes) ETV
attr interpolationmode none
attr source packetSentToUpper
attr title "packets passed to higher layer, vector(packetBytes)"
vector 155 VehicleNetwork.host[14].wlan[0].queue rcvdPk:vector(packetBytes) ETV
attr interpolationmode none
attr title "received packets, vector(packetBytes)"
vector 156 VehicleNetwork.host[14].wlan[0].queue queueingTime:vector ETV
attr interpolationmode none
attr title "queueing time, vector"
vector 157 VehicleNetwork.host[14].wlan[0].mac rcvdPkFromHL:vector(packetBytes) ETV
attr interpolationmode none
attr source packetReceivedFromUpper
attr title "packets received from higher layer, vector(packetBytes)"
vector 158 VehicleNetwork.host[14].wlan[0].radio transmissionState:vector ETV
attr interpolationmode sample-hold
attr source transmissionStateChanged
attr title "Radio transmission state, vector"
vector 159 VehicleNetwork.host[14].wlan[0].mac sentDownPk:vector(packetBytes) ETV
attr interpolationmode none
attr source packetSentToLower
attr title "packets sent to lower layer, vector(packetBytes)"
vector 160 VehicleNetwork.host[16].wlan[0].queue rcvdPk:vector(packetBytes) ETV
attr interpolationmode none
attr title "received packets, vector(packetBytes)"
vector 161 VehicleNetwork.host[16].wlan[0].queue queueingTime:vector ETV
attr interpolationmode none
attr title "queueing time, vector"
vector 162 VehicleNetwork.host[16].wlan[0].mac rcvdPkFromHL:vector(packetBytes) ETV
attr interpolationmode none
attr source packetReceivedFromUpper
attr title "packets received from higher layer, vector(packetBytes)"
vector 163 VehicleNetwork.host[16].wlan[0].radio transmissionState:vector ETV
attr interpolationmode sample-hold
attr source transmissionStateChanged
attr title "Radio transmission state, vector"
vector 164 VehicleNetwork.host[16].wlan[0].mac sentDownPk:vector(packetBytes) ETV
attr interpolationmode none
attr source packetSentToLower
attr title "packets sent to lower layer, vector(packetBytes)"
vector 165 VehicleNetwork.host[10].wlan[0].mac rcvdPkFromLL:vector(packetBytes) ETV
attr interpolationmode none
attr source packetReceivedFromLower
attr title "packets received from lower layer, vector(packetBytes)"
vector 166 VehicleNetwork.host[10].wlan[0].mac passedUpPk:vector(packetBytes) ETV
attr interpolationmode none
attr source packetSentToUpper
attr title "packets passed to higher layer, vector(packetBytes)"
vector 167 VehicleNetwork.host[19].wlan[0].queue rcvdPk:vector(packetBytes) ETV
attr interpolationmode none
attr title "received packets, vector(packetBytes)"
vector 168 VehicleNetwork.host[19].wlan[0].queue queueingTime:vector ETV
attr interpolationmode none
attr title "queueing time, vector"
vector 169 VehicleNetwork.host[19].wlan[0].mac rcvdPkFromHL:vector(packetBytes) ETV
attr interpolationmode none
attr source packetReceivedFromUpper
attr title "packets received from higher layer, vector(packetBytes)"
vector 170 VehicleNetwork.host[19].wlan[0].radio transmissionState:vector ETV
attr interpolationmode sample-hold
attr source transmissionStateChanged
attr title "Radio transmission state, vector"
vector 171 VehicleNetwork.host[19].wlan[0].mac sentDownPk:vector(packetBytes) ETV
attr interpolationmode none
attr source packetSentToLower
attr title "packets sent to lower layer, vector(packetBytes)"
vector 172 VehicleNetwork.host[0].wlan[0].mac rcvdPkFromLL:vector(packetBytes) ETV
attr interpolationmode none
attr source packetReceivedFromLower
attr title "packets received from lower layer, vector(packetBytes)"
vector 173 VehicleNetwork.host[0].wlan[0].mac passedUpPk:vector(packetBytes) ETV
attr interpolationmode none
attr source packetSentToUpper
attr title "packets passed to higher layer, vector(packetBytes)"
vector 174 VehicleNetwork.host[12].wlan[0].queue rcvdPk:vector(packetBytes) ETV
attr interpolationmode none
attr title "received packets, vector(packetBytes)"
vector 175 VehicleNetwork.host[12].wlan[0].queue queueingTime:vector ETV
attr interpolationmode none
attr title "queueing time, vector"
vector 176 VehicleNetwork.host[12].wlan[0].mac rcvdPkFromHL:vector(packetBytes) ETV
attr interpolationmode none
attr source packetReceivedFromUpper
attr title "packets received from higher layer, vector(packetBytes)"
vector 177 VehicleNetwork.host[12].wlan[0].radio transmissionState:vector ETV
attr interpolationmode sample-hold
attr source transmissionStateChanged
attr title "Radio transmission state, vector"
vector 178 VehicleNetwork.host[12].wlan[0].mac sentDownPk:vector(packetBytes) ETV
attr interpolationmode none
attr source packetSentToLower
attr title "packets sent to lower layer, vector(packetBytes)"
vector 179 VehicleNetwork.host[5].wlan[0].mac rcvdPkFromLL:vector(packetBytes) ETV
attr interpolationmode none
attr source packetReceivedFromLower
attr title "packets received from lower layer, vector(packetBytes)"
vector 180 VehicleNetwork.host[5].wlan[0].mac passedUpPk:vector(packetBytes) ETV
attr interpolationmode none
attr source packetSentToUpper
attr title "packets passed to higher layer, vector(packetBytes)"
vector 181 VehicleNetwork.host[3].wlan[0].mac rcvdPkFromLL:vector(packetBytes) ETV
attr interpolationmode none
attr source packetReceivedFromLower
attr title "packets received from lower layer, vector(packetBytes)"
vector 182 VehicleNetwork.host[3].wlan[0].mac passedUpPk:vector(packetBytes) ETV
attr interpolationmode none
attr source packetSentToUpper
attr title "packets passed to higher layer, vector(packetBytes)"
vector 183 VehicleNetwork.host[18].wlan[0].queue rcvdPk:vector(packetBytes) ETV
attr interpolationmode none
attr title "received packets, vector(packetBytes)"
vector 184 VehicleNetwork.host[18].wlan[0].queue queueingTime:vector ETV
attr interpolationmode none
attr title "queueing time, vector"
vector 185 VehicleNetwork.host[18].wlan[0].mac rcvdPkFromHL:vector(packetBytes) ETV
attr interpolationmode none
attr source packetReceivedFromUpper
attr title "packets received from higher layer, vector(packetBytes)"
vector 186 VehicleNetwork.host[18].wlan[0].radio transmissionState:vector ETV
attr interpolationmode sample-hold
attr source transmissionStateChanged
attr title "Radio transmission state, vector"
vector 187 VehicleNetwork.host[18].wlan[0].mac sentDownPk:vector(packetBytes) ETV
attr interpolationmode none
attr source packetSentToLower
attr title "packets sent to lower layer, vector(packetBytes)"
vector 188 VehicleNetwork.host[1].wlan[0].queue rcvdPk:vector(packetBytes) ETV
attr interpolationmode none
attr title "received packets, vector(packetBytes)"
vector 189 VehicleNetwork.host[1].wlan[0].queue queueingTime:vector ETV
attr interpolationmode none
attr title "queueing time, vector"
vector 190 VehicleNetwork.host[1].wlan[0].mac rcvdPkFromHL:vector(packetBytes) ETV
attr interpolationmode none
attr source packetReceivedFromUpper
attr title "packets received from higher layer, vector(packetBytes)"
vector 191 VehicleNetwork.host[1].wlan[0].radio transmissionState:vector ETV
attr interpolationmode sample-hold
attr source transmissionStateChanged
attr title "Radio transmission state, vector"
vector 192 VehicleNetwork.host[1].wlan[0].mac sentDownPk:vector(packetBytes) ETV
attr interpolationmode none
attr source packetSentToLower
attr title "packets sent to lower layer, vector(packetBytes)"
vector 193 VehicleNetwork.host[2].wlan[0].queue rcvdPk:vector(packetBytes) ETV
attr interpolationmode none
attr title "received packets, vector(packetBytes)"
vector 194 VehicleNetwork.host[2].wlan[0].queue queueingTime:vector ETV
attr interpolationmode none
attr title "queueing time, vector"
vector 195 VehicleNetwork.host[2].wlan[0].mac rcvdPkFromHL:vector(packetBytes) ETV
attr interpolationmode none
attr source packetReceivedFromUpper
attr title "packets received from higher layer, vector(packetBytes)"
vector 196 VehicleNetwork.host[2].wlan[0].radio transmissionState:vector ETV
attr interpolationmode sample-hold
attr source transmissionStateChanged
attr title "Radio transmission state, vector"
vector 197 VehicleNetwork.host[2].wlan[0].mac sentDownPk:vector(packetBytes) ETV
attr interpolationmode none
attr source packetSentToLower
attr title "packets sent to lower layer, vector(packetBytes)"
vector 198 VehicleNetwork.host[15].wlan[0].queue rcvdPk:vector(packetBytes) ETV
attr interpolationmode none
attr title "received packets, vector(packetBytes)"
vector 199 VehicleNetwork.host[15].wlan[0].queue queueingTime:vector ETV
attr interpolationmode none
attr title "queueing time, vector"
vector 200 VehicleNetwork.host[15].wlan[0].mac rcvdPkFromHL:vector(packetBytes) ETV
attr interpolationmode none
attr source packetReceivedFromUpper
attr title "packets received from higher layer, vector(packetBytes)"
vector 201 VehicleNetwork.host[15].wlan[0].radio transmissionState:vector ETV
attr interpolationmode sample-hold
attr source transmissionStateChanged
attr title "Radio transmission state, vector"
vector 202 VehicleNetwork.host[15].wlan[0].mac sentDownPk:vector(packetBytes) ETV
attr interpolationmode none
attr source packetSentToLower
attr title "packets sent to lower layer, vector(packetBytes)"
vector 203 VehicleNetwork.host[8].wlan[0].queue rcvdPk:vector(packetBytes) ETV
attr interpolationmode none
attr title "received packets, vector(packetBytes)"
vector 204 VehicleNetwork.host[8].wlan[0].queue queueingTime:vector ETV
attr interpolationmode none
attr title "queueing time, vector"
vector 205 VehicleNetwork.host[8].wlan[0].mac rcvdPkFromHL:vector(packetBytes) ETV
attr interpolationmode none
attr source packetReceivedFromUpper
attr title "packets received from higher layer, vector(packetBytes)"
vector 206 VehicleNetwork.host[8].wlan[0].radio transmissionState:vector ETV
attr interpolationmode sample-hold
attr source transmissionStateChanged
attr title "Radio transmission state, vector"
vector 207 VehicleNetwork.host[8].wlan[0].mac sentDownPk:vector(packetBytes) ETV
attr interpolationmode none
attr source packetSentToLower
attr title "packets sent to lower layer, vector(packetBytes)"
vector 208 VehicleNetwork.host[13].wlan[0].queue rcvdPk:vector(packetBytes) ETV
attr interpolationmode none
attr title "received packets, vector(packetBytes)"
vector 209 VehicleNetwork.host[13].wlan[0].queue queueingTime:vector ETV
attr interpolationmode none
attr title "queueing time, vector"
vector 210 VehicleNetwork.host[13].wlan[0].mac rcvdPkFromHL:vector(packetBytes) ETV
attr interpolationmode none
attr source packetReceivedFromUpper
attr title "packets received from higher layer, vector(packetBytes)"
vector 211 VehicleNetwork.host[13].wlan[0].radio transmissionState:vector ETV
attr interpolationmode sample-hold
attr source transmissionStateChanged
attr title "Radio transmission state, vector"
vector 212 VehicleNetwork.host[13].wlan[0].mac sentDownPk:vector(packetBytes) ETV
attr interpolationmode none
attr source packetSentToLower
attr title "packets sent to lower layer, vector(packetBytes)"
vector 213 VehicleNetwork.host[0].wlan[0].queue rcvdPk:vector(packetBytes) ETV
attr interpolationmode none
attr title "received packets, vector(packetBytes)"
vector 214 VehicleNetwork.host[0].wlan[0].queue queueingTime:vector ETV
attr interpolationmode none
attr title "queueing time, vector"
vector 215 VehicleNetwork.host[0].wlan[0].mac rcvdPkFromHL:vector(packetBytes) ETV
attr interpolationmode none
attr source packetReceivedFromUpper
attr title "packets received from higher layer, vector(packetBytes)"
vector 216 VehicleNetwork.host[0].wlan[0].radio transmissionState:vector ETV
attr interpolationmode sample-hold
attr source transmissionStateChanged
attr title "Radio transmission state, vector"
vector 217 VehicleNetwork.host[0].wlan[0].mac sentDownPk:vector(packetBytes) ETV
attr interpolationmode none
attr source packetSentToLower
attr title "packets sent to lower layer, vector(packetBytes)"
vector 218 VehicleNetwork.host[19].wlan[0].mac rcvdPkFromLL:vector(packetBytes) ETV
attr interpolationmode none
attr source packetReceivedFromLower
attr title "packets received from lower layer, vector(packetBytes)"
vector 219 VehicleNetwork.host[19].wlan[0].mac passedUpPk:vector(packetBytes) ETV
attr interpolationmode none
attr source packetSentToUpper
attr title "packets passed to higher layer, vector(packetBytes)"
vector 220 VehicleNetwork.host[11].wlan[0].queue rcvdPk:vector(packetBytes) ETV
attr interpolationmode none
attr title "received packets, vector(packetBytes)"
vector 221 VehicleNetwork.host[11].wlan[0].queue queueingTime:vector ETV
attr interpolationmode none
attr title "queueing time, vector"
vector 222 VehicleNetwork.host[11].wlan[0].mac rcvdPkFromHL:vector(packetBytes) ETV
attr interpolationmode none
attr source packetReceivedFromUpper
attr title "packets received from higher layer, vector(packetBytes)"
vector 223 VehicleNetwork.host[11].wlan[0].radio transmissionState:vector ETV
attr interpolationmode sample-hold
attr source transmissionStateChanged
attr title "Radio transmission state, vector"
vector 224 VehicleNetwork.host[11].wlan[0].mac sentDownPk:vector(packetBytes) ETV
attr interpolationmode none
attr source packetSentToLower
attr title "packets sent to lower layer, vector(packetBytes)"
vector 225 VehicleNetwork.host[7].wlan[0].queue rcvdPk:vector(packetBytes) ETV
attr interpolationmode none
attr title "received packets, vector(packetBytes)"
vector 226 VehicleNetwork.host[7].wlan[0].queue queueingTime:vector ETV
attr interpolationmode none
attr title "queueing time, vector"
vector 227 VehicleNetwork.host[7].wlan[0].mac rcvdPkFromHL:vector(packetBytes) ETV
attr interpolationmode none
attr source packetReceivedFromUpper
attr title "packets received from higher layer, vector(packetBytes)"
vector 228 VehicleNetwork.host[7].wlan[0].radio transmissionState:vector ETV
attr interpolationmode sample-hold
attr source transmissionStateChanged
attr title "Radio transmission state, vector"
vector 229 VehicleNetwork.host[7].wlan[0].mac sentDownPk:vector(packetBytes) ETV
attr interpolationmode none
attr source packetSentToLower
attr title "packets sent to lower layer, vector(packetBytes)"
vector 230 VehicleNetwork.host[9].wlan[0].queue rcvdPk:vector(packetBytes) ETV
attr interpolationmode none
attr title "received packets, vector(packetBytes)"
vector 231 VehicleNetwork.host[9].wlan[0].queue queueingTime:vector ETV
attr interpolationmode none
attr title "queueing time, vector"
vector 232 VehicleNetwork.host[9].wlan[0].mac rcvdPkFromHL:vector(packetBytes) ETV
attr interpolationmode none
attr source packetReceivedFromUpper
attr title "packets received from higher layer, vector(packetBytes)"
vector 233 VehicleNetwork.host[9].wlan[0].radio transmissionState:vector ETV
attr interpolationmode sample-hold
attr source transmissionStateChanged
attr title "Radio transmission state, vector"
vector 234 VehicleNetwork.host[9].wlan[0].mac sentDownPk:vector(packetBytes) ETV
attr interpolationmode none
attr source packetSentToLower
attr title "packets sent to lower layer, vector(packetBytes)"
vector 235 VehicleNetwork.host[3].wlan[0].queue rcvdPk:vector(packetBytes) ETV
attr interpolationmode none
attr title "received packets, vector(packetBytes)"
vector 236 VehicleNetwork.host[3].wlan[0].queue queueingTime:vector ETV
attr interpolationmode none
attr title "queueing time, vector"
vector 237 VehicleNetwork.host[3].wlan[0].mac rcvdPkFromHL:vector(packetBytes) ETV
attr interpolationmode none
attr source packetReceivedFromUpper
attr title "packets received from higher layer, vector(packetBytes)"
vector 238 VehicleNetwork.host[3].wlan[0].radio transmissionState:vector ETV
attr interpolationmode sample-hold
attr source transmissionStateChanged
attr title "Radio transmission state, vector"
vector 239 VehicleNetwork.host[3].wlan[0].mac sentDownPk:vector(packetBytes) ETV
attr interpolationmode none
attr source packetSentToLower
attr title "packets sent to lower layer, vector(packetBytes)"
vector 240 VehicleNetwork.host[8].wlan[0].mac rcvdPkFromLL:vector(packetBytes) ETV
attr interpolationmode none
attr source packetReceivedFromLower
attr title "packets received from lower layer, vector(packetBytes)"
vector 241 VehicleNetwork.host[8].wlan[0].mac passedUpPk:vector(packetBytes) ETV
attr interpolationmode none
attr source packetSentToUpper
attr title "packets passed to higher layer, vector(packetBytes)"
vector 242 VehicleNetwork.host[11].wlan[0].mac rcvdPkFromLL:vector(packetBytes) ETV
attr interpolationmode none
attr source packetReceivedFromLower
attr title "packets received from lower layer, vector(packetBytes)"
vector 243 VehicleNetwork.host[11].wlan[0].mac passedUpPk:vector(packetBytes) ETV
attr interpolationmode none
attr source packetSentToUpper
attr title "packets passed to higher layer, vector(packetBytes)"
vector 244 VehicleNetwork.host[17].wlan[0].queue rcvdPk:vector(packetBytes) ETV
attr interpolationmode none
attr title "received packets, vector(packetBytes)"
vector 245 VehicleNetwork.host[17].wlan[0].queue queueingTime:vector ETV
attr interpolationmode none
attr title "queueing time, vector"
vector 246 VehicleNetwork.host[17].wlan[0].mac rcvdPkFromHL:vector(packetBytes) ETV
attr interpolationmode none
attr source packetReceivedFromUpper
attr title "packets received from higher layer, vector(packetBytes)"
vector 247 VehicleNetwork.host[17].wlan[0].radio transmissionState:vector ETV
attr interpolationmode sample-hold
attr source transmissionStateChanged
attr title "Radio transmission state, vector"
vector 248 VehicleNetwork.host[17].wlan[0].mac sentDownPk:vector(packetBytes) ETV
attr interpolationmode none
attr source packetSentToLower
attr title "packets sent to lower layer, vector(packetBytes)"
vector 249 VehicleNetwork.host[16].wlan[0].mac rcvdPkFromLL:vector(packetBytes) ETV
attr interpolationmode none
attr source packetReceivedFromLower
attr title "packets received from lower layer, vector(packetBytes)"
vector 250 VehicleNetwork.host[16].wlan[0].mac passedUpPk:vector(packetBytes) ETV
attr interpolationmode none
attr source packetSentToUpper
attr title "packets passed to higher layer, vector(packetBytes)"
vector 251 VehicleNetwork.host[10].wlan[0].queue rcvdPk:vector(packetBytes) ETV
attr interpolationmode none
attr title "received packets, vector(packetBytes)"
vector 252 VehicleNetwork.host[10].wlan[0].queue queueingTime:vector ETV
attr interpolationmode none
attr title "queueing time, vector"
vector 253 VehicleNetwork.host[10].wlan[0].mac rcvdPkFromHL:vector(packetBytes) ETV
attr interpolationmode none
attr source packetReceivedFromUpper
attr title "packets received from higher layer, vector(packetBytes)"
vector 254 VehicleNetwork.host[10].wlan[0].radio transmissionState:vector ETV
attr interpolationmode sample-hold
attr source transmissionStateChanged
attr title "Radio transmission state, vector"
vector 255 VehicleNetwork.host[10].wlan[0].mac sentDownPk:vector(packetBytes) ETV
attr interpolationmode none
attr source packetSentToLower
attr title "packets sent to lower layer, vector(packetBytes)"
0	0	0	0.54881350230426
0	474	3.841031227371	0.54113143984951
0	494	3.841255227371	0.54112919984951
0	784	4.405855152128	0.54
0	893	4.587615566188	0.53963647917188
0	917	4.587839566188	0.53961407917188
0	1736	7.682061870786	0.53342563456268
0	1756	7.682285870786	0.53342339456268
0	2228	9.175231132376	0.5304375040395
0	2252	9.175455132376	0.5304151040395
0	2450	9.383007152128	0.53
0	3078	11.523092514201	0.52571982927585
0	3098	11.523316514201	0.52571758927585
0	3962	13.762846698564	0.52123852890713
0	3986	13.763070698564	0.52121612890713
0	4225	14.371135152128	0.52
0	4559	15.364123157616	0.51801402398902
0	4579	15.364347157616	0.51801178398902
0	5548	18.350462264752	0.51203955377475
0	5572	18.350686264752	0.51201715377475
0	6035	19.205153801031	0.51030821870219
0	6055	19.205377801031	0.51030597870219
0	6098	19.358367152128	0.51
0	7575	22.93807783094	0.50284057864238
0	7599	22.93830183094	0.50281817864238
0	7694	23.046184444446	0.50260241341536
0	7714	23.046408444446	0.50260017341536
0	8297	24.346495152128	0.5
0	9368	26.887215087861	0.49491856012853
0	9388	26.887439087861	0.49491632012853
0	9654	27.525693397128	0.49363981151
0	9678	27.525917397128	0.49361741151
0	10724	29.334623152128	0.49
0	11291	30.728245731276	0.4872127548417
0	11311	30.728469731276	0.4872105148417
0	11985	32.113308963316	0.48444083637762
0	12009	32.113532963316	0.48441843637762
0	13215	34.322751152128	0.48
0	13288	34.569276374691	0.47950694955487
0	13308	34.569500374691	0.47950470955487
0	14441	36.700924529504	0.47524186124525
0	14465	36.701148529504	0.47521946124525
0	15332	38.410307018106	0.47180114426804
0	15352	38.410531018106	0.47179890426804
0	15795	39.309983152128	0.47
0	16845	41.288540095692	0.46604288611287
0	16869	41.288764095692	0.46602048611287
0	17405	42.251337661521	0.46409533898121
0	17425	42.251561661521	0.46409309898121
0	18504	44.298111152128	0.46
0	19398	45.87615566188	0.4568439109805
0	19422	45.87637966188	0.4568215109805
0	19613	46.092368304936	0.45638953369438
0	19633	46.092592304936	0.45638729369438
0	21281	49.286239152128	0.45
0	21642	49.933398948351	0.44870568040755
0	21662	49.933622948351	0.44870344040755
0	21959	50.463771228068	0.44764314384812
0	21983	50.463995228068	0.44762074384812
0	23818	53.774429591766	0.44099987512072
0	23838	53.774653591766	0.44099763512072
0	24188	54.273471152128	0.44
0	24607	55.051386794256	0.43844416871574
0	24631	55.051610794256	0.43842176871574
0	26097	57.615460235181	0.43329406983389
0	26117	57.615684235181	0.43329182983389
0	27016	59.261599152128	0.43
0	27352	59.639002360444	0.42924519358337
0	27376	59.639226360444	0.42922279358337
0	28428	61.456490878596	0.42558826454706
0	28448	61.456714878596	0.42558602454706
0	30072	64.226617926632	0.42004621845099
0	30096	64.226841926632	0.42002381845099
0	30122	64.238751152128	0.42
0	30820	65.297521522011	0.41788245926023
0	30840	65.297745522011	0.41788021926023
0	32855	68.81423349282	0.41084724331862
0	32879	68.81445749282	0.41082484331862
0	33115	69.138552165426	0.4101766539734
0	33135	69.138776165426	0.4101744139734
0	33240	69.225983152128	0.41
0	35508	72.979582808841	0.40249280068657
0	35528	72.979806808841	0.40249056068657
0	35880	73.401849059008	0.40164647618624
0	35904	73.402073059008	0.40162407618624
0	36402	74.214111152128	0.4
0	37979	76.820613452256	0.39478699539974
0	37999	76.820837452256	0.39478475539974
0	38746	77.989464625196	0.39244750105386
0	38770	77.989688625196	0.39242510105386
0	39588	79.202239152128	0.39
0	40518	80.661644095671	0.38708119011291
0	40538	80.661868095671	0.38707895011291
0	41747	82.577080191384	0.38324852592149
0	41771	82.577304191384	0.38322612592149
0	42909	84.190367152128	0.38
0	43101	84.502674739086	0.37937538482608
0	43121	84.502898739086	0.37937314482608
0	44905	87.164695757572	0.37404955078911
0	44929	87.164919757572	0.37402715078911
0	45669	88.343705382501	0.37166957953925
0	45689	88.343929382501	0.37166733953925
0	46283	89.177599152128	0.37
0	48018	91.75231132376	0.36485057565674
0	48042	91.75253532376	0.36482817565674
0	48368	92.184736025916	0.36396377425242
0	48388	92.184960025916	0.36396153425242
0	49691	94.165727152128	0.36
0	51121	96.025766669331	0.35627992096559
0	51141	96.025990669331	0.35627768096559
0	51312	96.339926889948	0.35564980852436
0	51336	96.340150889948	0.35562740852436
0	53344	99.153855152128	0.35
0	53777	99.866797312746	0.34857411567876
0	53798	99.867021312746	0.34857187567876
0	54483	100.927542456136	0.34645083339198
0	54507	100.927766456136	0.34642843339198
0	56534	103.707827956161	0.34086831039193
0	56554	103.708051956161	0.34086607039193
0	56945	104.141087152128	0.34
0	57923	105.515158022324	0.33725185825961
0	57947	105.515382022324	0.33722945825961
0	59449	107.548858599576	0.3331625051051
0	59471	107.549082599576	0.3331602651051
0	60581	109.129215152128	0.33
0	61260	110.102773588512	0.32805288312723
0	61284	110.102997588512	0.32803048312723
0	62241	111.389889242991	0.32545669981827
0	62261	111.390113242991	0.32545445981827
0	64497	114.117343152128	0.32
0	64845	114.6903891547	0.31885390799486
0	64869	114.6906131547	0.31883150799486
0	65275	115.230919886406	0.31775089453144
0	65295	115.231143886406	0.31774865453144
0	68219	119.071950529821	0.31006704124461
0	68240	119.072174529821	0.31006480124461
0	68278	119.104575152128	0.31
0	68368	119.278004720888	0.30965314086248
0	68392	119.278228720888	0.30963074086248
0	71136	122.912981173236	0.30236123595778
0	71156	122.913205173236	0.30235899595778
0	71961	123.865620287076	0.3004541657301
0	71985	123.865844287076	0.3004317657301
0	72177	124.081727152128	0.3
0	74229	126.754011816651	0.29465543067095
0	74249	126.754235816651	0.29465319067095
0	75527	128.453235853264	0.29125519059773
0	75551	128.453459853264	0.29123279059773
0	76167	129.069855152128	0.29
0	77286	130.595042460066	0.28694962538412
0	77306	130.595266460066	0.28694738538412
0	79335	133.040851419452	0.28205621546535
0	79360	133.041075419452	0.28203381546535
0	80226	134.057983152128	0.28
0	80555	134.436073103481	0.27924382009729
0	80575	134.436297103481	0.27924158009729
0	83032	137.62846698564	0.27285724033298
0	83056	137.62869098564	0.27283484033298
0	83646	138.277103746896	0.27153801481046
0	83666	138.277327746896	0.27153577481046
0	84284	139.045215152128	0.27
0	86748	142.118134390311	0.26385416152363
0	86768	142.118358390311	0.26385192152363
0	86850	142.216082551828	0.2636564732006
0	86874	142.216306551828	0.2636340732006
0	88412	144.033343152128	0.26
0	89988	145.959165033726	0.2561483562368
0	90008	145.959389033726	0.2561461162368
0	90708	146.803698118016	0.25445749806822
0	90732	146.803922118016	0.25443509806822
0	92452	149.021471152128	0.25
0	93135	149.800195677141	0.24844255094997
0	93155	149.800419677141	0.24844031094997
0	94443	151.391313684204	0.24525852293585
0	94467	151.391537684204	0.24523612293585
0	96303	153.641226320556	0.24073674566314
0	96323	153.641450320556	0.24073450566314
0	96614	154.008703152128	0.24
0	98170	155.978929250392	0.23605954780347
0	98194	155.979153250392	0.23603714780347
0	99434	157.482256963971	0.23303094037631
0	99454	157.482480963971	0.23302870037631
0	100737	158.996831152128	0.23
0	101949	160.56654481658	0.2268605726711
0	101973	160.56676881658	0.2268381726711
1	0	0	0
2	0	0	0.5928446163889
2	108	1.422308194451	0.59
2	232	3.160651922417	0.58652331254407
2	261	3.160875922417	0.58652107254407
2	346	3.254183484265	0.58633445742037
2	366	3.254407484265	0.58633221742037
2	624	4.067211944633	0.58470660849964
2	648	4.067435944633	0.58468420849964
2	1000	4.668587919311	0.58348190455028
2	1032	4.668811919311	0.58347966455028
2	1428	6.321303318665	0.58017468175157
2	1457	6.321527318665	0.58017244175157
2	1540	6.407748194451	0.58
2	1552	6.508366843309	0.57979876270228
2	1572	6.508590843309	0.57979652270228
2	1906	8.134423889266	0.57654485661037
2	1930	8.134647889266	0.57652245661037
2	2396	9.337175208135	0.57411740197263
2	2428	9.337399208135	0.57411516197263
2	2465	9.481954714913	0.57382605095908
2	2494	9.482178714913	0.57382381095908
2	2701	9.762550202353	0.5732630679842
2	2721	9.762774202353	0.5732608279842
2	3060	11.393188194451	0.57
2	3287	12.201635833899	0.5683831047211
2	3311	12.201859833899	0.5683607047211
2	3497	12.642606111161	0.56747921216658
2	3526	12.642830111161	0.56747697216658
2	3687	13.016733561397	0.56672916526611
2	3707	13.016957561397	0.56672692526611
2	4090	14.005762496959	0.56474931539498
2	4122	14.005986496959	0.56474707539498
2	4716	15.803257507409	0.56115253337408
2	4745	15.803481507409	0.56115029337408
2	4924	16.268847778532	0.56021956083184
2	4949	16.269071778532	0.56019716083184
2	4984	16.270916920441	0.56019347054802
2	5004	16.271140920441	0.56019123054802
2	5046	16.366756194451	0.56
2	5746	18.674349785783	0.55538481281734
2	5778	18.674573785783	0.55538257281734
2	5845	18.963908903657	0.55480390258159
2	5874	18.964132903657	0.55480166258159
2	6181	19.525100279485	0.55367972782993
2	6201	19.525324279485	0.55367748782993
2	6614	20.336059723165	0.55205601694257
2	6638	20.336283723165	0.55203361694257
2	6908	21.353092194451	0.55
2	7159	22.124560299905	0.54845706378909
2	7188	22.124784299905	0.54845482378909
2	7393	22.779283638529	0.54714582511184
2	7413	22.779507638529	0.54714358511184
2	7852	23.342937074607	0.54601672623969
2	7884	23.343161074607	0.54601448623969
2	8308	24.403271667798	0.54389426505331
2	8332	24.403495667798	0.54387186505331
2	8760	25.285211696153	0.5421084329966
2	8789	25.285435696153	0.5421061929966
2	9074	26.033466997573	0.54061013039376
2	9094	26.033690997573	0.54060789039376
2	9192	26.337636194451	0.54
2	9969	28.011524363431	0.53665222366204
2	10001	28.011748363431	0.53664998366204
2	10164	28.445863092401	0.5357817542041
2	10194	28.446087092401	0.5357795142041
2	10269	28.470483612431	0.53573072116404
2	10293	28.470707612431	0.53570832116404
2	10666	29.287650356617	0.53407443567567
2	10686	29.287874356617	0.53407219567567
2	11498	31.323972194451	0.53
2	11635	31.606514488649	0.5294349154116
2	11664	31.606738488649	0.5294326754116
2	12237	32.537695557064	0.52757076127477
2	12261	32.537919557064	0.52754836127477
2	12300	32.541833715661	0.52754053295758
2	12320	32.542057715661	0.52753829295758
2	12394	32.680111652255	0.52726218508439
2	12426	32.680335652255	0.52725994508439
2	13448	34.767165884897	0.52308628461911
2	13477	34.767389884897	0.52308404461911
2	13891	35.796017074705	0.52102679023949
2	13911	35.796241074705	0.52102455023949
2	14082	36.308516194451	0.52
2	14358	36.604907501697	0.51940721738551
2	14382	36.605131501697	0.51938481738551
2	14825	37.348698941079	0.51789768250674
2	14857	37.348922941079	0.51789544250674
2	15044	37.927817281145	0.51673765382661
2	15073	37.928041281145	0.51673541382661
2	15619	39.050200433749	0.5144910955214
2	15639	39.050424433749	0.5144888555214
2	16442	40.67211944633	0.51124546549624
2	16466	40.67234344633	0.51122306549624
2	16683	41.088468677393	0.51039081503412
2	16712	41.088692677393	0.51038857503412
2	16837	41.282980194451	0.51
2	17279	42.017286229903	0.5085313879291
2	17311	42.017510229903	0.5085291479291
2	17466	42.304383792793	0.50795540080332
2	17486	42.304607792793	0.50795316080332
2	18439	44.249120073641	0.50406413624162
2	18468	44.249344073641	0.50406189624162
2	18794	44.739331390963	0.50308192160698
2	18818	44.739555390963	0.50305952160698
2	19101	45.558567151837	0.50142149808523
2	19121	45.558791151837	0.50141925808523
2	19761	46.268420194451	0.5
2	19900	46.685873518727	0.49916509335145
2	19932	46.686097518727	0.49916285335145
2	20237	47.409771469889	0.49771550544912
2	20266	47.409995469889	0.49771326544912
2	20918	48.806543335596	0.49492016971771
2	20942	48.806767335596	0.49489776971771
2	20982	48.812750510881	0.49488580336714
2	21002	48.812974510881	0.49488356336714
2	22047	50.570422866137	0.49136866665663
2	22076	50.570646866137	0.49136642665663
2	22484	51.253860194451	0.49
2	22528	51.354460807551	0.4897987987738
2	22560	51.354684807551	0.4897965587738
2	22878	52.066933869925	0.48837206064905
2	22898	52.067157869925	0.48836982064905
2	23345	52.873755280229	0.48675662582844
2	23369	52.873979280229	0.48673422582844
2	23752	53.731074262385	0.48502003586413
2	23781	53.731298262385	0.48501779586413
2	24900	55.321117228969	0.48183815793096
2	24920	55.321341228969	0.48183591793096
2	25194	56.023048096375	0.48043250419615
2	25226	56.023272096375	0.48043026419615
2	25370	56.238404194451	0.48
2	25639	56.891725658633	0.47869335707164
2	25668	56.891949658633	0.47869111707164
2	25756	56.940967224862	0.47859308193918
2	25780	56.941191224862	0.47857068193918
2	26625	58.575300588013	0.47530246321288
2	26645	58.575524588013	0.47530022321288
2	27593	60.052377054881	0.47234651827914
2	27622	60.052601054881	0.47234427827914
2	27942	60.691635385199	0.4710662096185
2	27974	60.691859385199	0.4710639696185
2	28149	61.008179169495	0.47043133004991
2	28173	61.008403169495	0.47040893004991
2	28329	61.212868194451	0.47
2	28664	61.829483947057	0.46876676849479
2	28684	61.829707947057	0.46876452849479
2	29437	63.213028451129	0.46599788748664
2	29466	63.213252451129	0.46599564748664
2	30625	65.075391114128	0.46227137016065
2	30649	65.075615114128	0.46224897016065
2	30691	65.083667306101	0.4622328657767
2	30711	65.083891306101	0.4622306257767
2	30895	65.360222674023	0.46167796304086
2	30927	65.360446674023	0.46167572304086
2	31299	66.198308194451	0.46
2	31426	66.373679847377	0.45964925669415
2	31455	66.373903847377	0.45964701669415
2	32467	68.337850665145	0.45571912305861
2	32487	68.338074665145	0.45571688305861
2	33159	69.142603058761	0.45410782627138
2	33183	69.142827058761	0.45408542627138
2	33469	69.534331243625	0.45330241790165
2	33498	69.534555243625	0.45330017790165
2	33705	70.028809962847	0.45231166846321
2	33739	70.029033962847	0.45230942846321
2	34475	71.183748194451	0.45
2	34646	71.592034024189	0.44918342834052
2	34666	71.592258024189	0.44918118834052
2	35189	72.694982639873	0.44697573910916
2	35218	72.695206639873	0.44697349910916
2	35692	73.209815003394	0.44594428238211
2	35716	73.210039003394	0.44592188238211
2	36712	74.697397251671	0.44294716588556
2	36744	74.697621251671	0.44294492588556
2	36877	74.846217383233	0.44264773362244
2	36897	74.846441383233	0.44264549362244
2	37333	75.855634036121	0.44062710831666
2	37362	75.855858036121	0.44062486831666
2	37607	76.168292194451	0.44
2	38252	77.277026948027	0.43778253049285
2	38276	77.277250948027	0.43776013049285
2	38840	78.100400742277	0.43611383090435
2	38860	78.100624742277	0.43611159090435
2	39468	79.016285432369	0.43428026952416
2	39497	79.016509432369	0.43427802952416
2	39766	79.365984540495	0.43357907930791
2	39799	79.366208540495	0.43357683930791
2	40815	81.154628194451	0.43
2	40890	81.34423889266	0.42962077860358
2	40914	81.34446289266	0.42959837860358
2	40959	81.354584101321	0.42957813618626
2	40979	81.354808101321	0.42957589618626
2	41422	82.176936828617	0.42793163873167
2	41452	82.177160828617	0.42792939873167
2	42790	84.034571829319	0.42421457673026
2	42822	84.034795829319	0.42421233673026
2	43190	84.608767460365	0.42306439346817
2	43210	84.608991460365	0.42306215346817
2	43598	85.337588224865	0.42160495993917
2	43627	85.337812224865	0.42160271993917
2	43734	85.411450837293	0.42145544271432
2	43758	85.411674837293	0.42143304271432
2	44193	86.128196194451	0.42
2	45356	87.862950819409	0.41653049075008
2	45377	87.863174819409	0.41652825075008
2	45786	88.498239621113	0.41525812114668
2	45815	88.498463621113	0.41525588114668
2	45930	88.703159118143	0.41484649015262
2	45962	88.703383118143	0.41484425015262
2	46573	89.478662781926	0.41329369082505
2	46597	89.478886781926	0.41327129082505
2	47459	91.114532194451	0.41
2	47470	91.117134178453	0.409994796032
2	47490	91.117358178453	0.409992556032
2	47926	91.658891017361	0.40890949035418
2	47956	91.659115017361	0.40890725035418
2	49224	93.371746406967	0.40548198757497
2	49256	93.371970406967	0.40547974757497
2	49354	93.545874726559	0.40513193893578
2	49378	93.546098726559	0.40510953893578
2	49848	94.371317537497	0.40345910131391
2	49868	94.371541537497	0.40345686131391
2	50164	94.819542413609	0.40256085956168
2	50193	94.819766413609	0.40255861956168
2	51200	96.099076194451	0.4
2	52087	97.613086671192	0.39697197904652
2	52111	97.613310671192	0.39694957904652
2	52157	97.625500896541	0.39692519859582
2	52177	97.625724896541	0.39692295859582
2	52482	97.980193809857	0.39621402076919
2	52511	97.980417809857	0.39621178076919
2	52563	98.040333695791	0.39609194899732
2	52595	98.040557695791	0.39608970899732
2	54406	100.879684255585	0.39041145587773
2	54426	100.879908255585	0.39040921587773
2	54660	101.084516194451	0.39
2	54693	101.140845206105	0.38988734197669
2	54722	101.141069206105	0.38988510197669
2	55102	101.680298615825	0.38880664315725
2	55126	101.680522615825	0.38878424315725
2	55938	102.708920984615	0.38672744641967
2	55970	102.709144984615	0.38672520641967
2	56897	104.133867614629	0.38387576115964
2	56918	104.134091614629	0.38387352115964
2	57035	104.301496602353	0.3835387111842
2	57064	104.301720602353	0.3835364711842
2	58132	105.747510560458	0.38064489126799
2	58156	105.747734560458	0.38062249126799
2	58381	106.058980194451	0.38
2	59203	107.377508273439	0.37736294384202
2	59235	107.377732273439	0.37736070384202
2	59267	107.388050973673	0.37734006644156
2	59287	107.388274973673	0.37733782644156
2	59359	107.462147998601	0.3771900803917
2	59388	107.462371998601	0.3771878403917
2	61062	109.814722505091	0.37248313937872
2	61086	109.814946505091	0.37246073937872
2	61736	110.622799394849	0.3708450335992
2	61766	110.623023394849	0.3708427935992
2	61797	110.642234332717	0.37080437172347
2	61817	110.642458332717	0.37080213172347
2	62051	111.043524194451	0.37
2	62803	112.046095562263	0.36799485726438
2	62835	112.046319562263	0.36799261726438
2	63958	113.783450791097	0.36451835480671
2	63987	113.783674791097	0.36451611480671
2	64107	113.881934449724	0.36431959548945
2	64131	113.882158449724	0.36429719548945
2	64179	113.896417691761	0.36426867700538
2	64199	113.896641691761	0.36426643700538
2	65782	116.029860194451	0.36
2	66310	116.714682851087	0.35863035468673
2	66342	116.714906851087	0.35862811468673
2	66489	116.944102187345	0.35816972401421
2	66518	116.944326187345	0.35816748401421
2	66646	117.150601050805	0.35775493428729
2	66666	117.150825050805	0.35775269428729
2	67213	117.949146394357	0.35615605160019
2	67237	117.949370394357	0.35613365160019
2	68955	120.104753583593	0.35182288522172
2	68984	120.104977583593	0.35182064522172
2	69222	120.404784409849	0.3512210315692
2	69243	120.405008409849	0.3512187915692
2	69603	121.014404194451	0.35
2	69929	121.383270139911	0.34926226810908
2	69961	121.383494139911	0.34926002810908
2	70428	122.01635833899	0.34799429971092
2	70452	122.01658233899	0.34797189971092
2	71430	123.265404979841	0.34547425442922
2	71459	123.265628979841	0.34547201442922
2	71800	123.658967768893	0.34468533685112
2	71821	123.659191768893	0.34468309685112
2	73587	126.000740194451	0.34
2	73624	126.051857428735	0.33989776553143
2	73656	126.052081428735	0.33989552553143
2	73692	126.083570283623	0.33983254782166
2	73716	126.083794283623	0.33981014782166
2	73997	126.426056376089	0.33912562363672
2	74026	126.426280376089	0.33912338363672
2	74366	126.913151127937	0.33814964213303
2	74386	126.913375127937	0.33814740213303
2	76455	129.586707772337	0.33280073684423
2	76484	129.586931772337	0.33279849684423
2	76911	130.150782228256	0.33167079593239
2	76935	130.151006228256	0.33164839593239
2	76985	130.167334486981	0.33161573941494
2	77005	130.167558486981	0.33161349941494
2	77407	130.720444717559	0.33050772695378
2	77439	130.720668717559	0.33050548695378
2	77657	130.973412194451	0.33
2	79066	132.747359168585	0.32645210605173
2	79095	132.747583168585	0.32644986605173
2	79606	133.421517846025	0.32510199669685
2	79626	133.421741846025	0.32509975669685
2	80373	134.217994172889	0.32350725204312
2	80398	134.218218172889	0.32348485204312
2	81211	135.389032006383	0.32114322437614
2	81243	135.389256006383	0.32114098437614
2	81678	135.908010564833	0.32010347525924
2	81707	135.908234564833	0.32010123525924
2	81747	135.958852194451	0.32
2	82175	136.675701205069	0.31856630197876
2	82195	136.675925205069	0.31856406197876
2	83692	138.285206117522	0.31534550015386
2	83716	138.285430117522	0.31532310015386
2	84305	139.068661961081	0.31375663646674
2	84334	139.068885961081	0.31375439646674
2	84854	139.929884564113	0.31203239926068
2	84875	139.930108564113	0.31203015926068
2	84984	140.057619295207	0.31177513779849
2	85012	140.057843295207	0.31177289779849
2	85774	140.944292194451	0.31
2	86904	142.229313357329	0.30742995767424
2	86933	142.229537357329	0.30742771767424
2	87080	142.352418062155	0.30718195626459
2	87104	142.352642062155	0.30715955626459
2	87685	143.184067923157	0.30549670454259
2	87705	143.184291923157	0.30549446454259
2	88842	144.726206584031	0.30241063522084
2	88870	144.726430584031	0.30240839522084
2	89392	145.389964753577	0.30108132688175
2	89421	145.390188753577	0.30107908688175
2	89918	145.929732194451	0.3
2	90360	146.419630006788	0.29902020437533
2	90384	146.419854006788	0.29899780437533
2	90436	146.438251282201	0.2989610098245
2	90456	146.438475282201	0.2989587698245
2	92028	148.550616149825	0.29473448808925
2	92057	148.550840149825	0.29473224808925
2	92733	149.394793872855	0.29304434064319
2	92762	149.395017872855	0.29304210064319
2	93015	149.692434641245	0.29244726710641
2	93035	149.692658641245	0.29244502710641
2	93786	150.486841951421	0.29085666048606
2	93811	150.487065951421	0.29083426048606
2	94139	150.904196194451	0.29
2	94693	151.711267546073	0.28838585729676
2	94722	151.711491546073	0.28838361729676
2	95633	152.946618000289	0.28591336438832
2	95653	152.946842000289	0.28591112438832
2	96706	154.063381161679	0.28367804606554
2	96734	154.063605161679	0.28367580606554
2	97050	154.554053896054	0.28269490859679
2	97074	154.554277896054	0.28267250859679
2	97296	154.871918942321	0.28203722650426
2	97327	154.872142942321	0.28203498650426
2	98109	155.889636194451	0.28
2	98402	156.200801359333	0.27937766967024
2	98423	156.201025359333	0.27937542967024
2	99858	158.032570338569	0.27571233971176
2	99887	158.032794338569	0.27571009971176
2	100357	158.621265840687	0.27453315670753
2	100381	158.621489840687	0.27451075670753
2	100530	158.731968450503	0.2742897994879
2	100560	158.732192450503	0.2742875594879
2	101067	159.454984718377	0.27284197495215
2	101087	159.455208718377	0.27283973495215
2	102176	160.875076194451	0.27
3	0	0	0
4	0	0	0.71518936497159
4	151	2.594682485797	0.71
4	290	3.192516657023	0.70880433165755
4	319	3.192740657023	0.70880209165755
4	680	4.144728236236	0.70689811649912
4	704	4.144952236236	0.70687571649912
4	846	4.565448303686	0.70603472436422
4	869	4.565672303686	0.70603248436422
4	1489	6.385032665019	0.70239376364156
4	1518	6.385256665019	0.70239152364156
4	1724	7.581018485797	0.7
4	1970	8.289456472472	0.69858312402665
4	1994	8.289680472472	0.69856072402665
4	2179	9.130896071477	0.69687829282864
4	2202	9.131120071477	0.69687605282864
4	2579	9.577548673015	0.69598319562556
4	2608	9.577772673015	0.69598095562556
4	3417	12.434184708708	0.69026813155418
4	3441	12.434408708708	0.69024573155418
4	3480	12.557274485797	0.69
4	3564	12.770064681011	0.68957441960957
4	3593	12.770288681011	0.68957217960957
4	3909	13.696343839268	0.68772006929306
4	3932	13.696567839268	0.68771782929306
4	4794	15.962580689007	0.68318580359358
4	4823	15.962804689007	0.68318356359358
4	5124	16.578912944944	0.68195134708171
4	5148	16.579136944944	0.68192894708171
4	5345	17.543610485797	0.68
4	5490	18.261791607059	0.67856363775748
4	5513	18.262015607059	0.67856139775748
4	5975	19.155096697003	0.67677523557759
4	6004	19.155320697003	0.67677299557759
4	6736	20.72364118118	0.67363635460923
4	6760	20.72386518118	0.67361395460923
4	7259	22.347612704999	0.6703664595616
4	7288	22.347836704999	0.6703642195616
4	7341	22.529946485797	0.67
4	7507	22.82723937485	0.66940541422189
4	7530	22.82746337485	0.66940317422189
4	8616	24.868369417416	0.66532136213676
4	8640	24.868593417416	0.66529896213676
4	8869	25.540128712995	0.6639558915456
4	8898	25.540352712995	0.6639536515456
4	9580	27.392687142641	0.66024898268631
4	9603	27.392911142641	0.66024674268631
4	9649	27.516282485797	0.66
4	10389	28.732644720991	0.65756727552961
4	10418	28.732868720991	0.65756503552961
4	10499	29.013097653652	0.65700457766429
4	10523	29.013321653652	0.65698217766429
4	11782	31.925160728987	0.65115849951362
4	11835	31.925384728987	0.65115625951362
4	11895	31.958134910432	0.65109075915073
4	11918	31.958358910432	0.65108851915073
4	12227	32.502618485797	0.65
4	12624	33.157825889888	0.64868958519182
4	12648	33.158049889888	0.64866718519182
4	13601	35.117676736983	0.64474793149763
4	13630	35.117900736983	0.64474569149763
4	14290	36.523582678223	0.64193432761515
4	14313	36.523806678223	0.64193208761515
4	14754	37.302554126124	0.64037459271935
4	14778	37.302778126124	0.64035219271935
4	14911	37.478874485797	0.64
4	15252	38.310192744979	0.63833736348164
4	15281	38.310416744979	0.63833512348164
4	16737	41.089030446014	0.63277789607957
4	16760	41.089254446014	0.63277565607957
4	16982	41.44728236236	0.63205960024687
4	17006	41.44750636236	0.63203720024687
4	17060	41.502708752975	0.63192679546564
4	17089	41.502932752975	0.63192455546564
4	17564	42.465210485797	0.63
4	18733	44.695224760971	0.62553997144965
4	18762	44.695448760971	0.62553773144965
4	19160	45.592010598596	0.6237446077744
4	19184	45.592234598596	0.6237222077744
4	19283	45.654478213805	0.62359772054398
4	19306	45.654702213805	0.62359548054398
4	20345	47.452442485797	0.62
4	20492	47.887740768967	0.61912940343366
4	20521	47.887964768967	0.61912716343366
4	21527	49.736738834832	0.61542961530193
4	21551	49.736962834832	0.61540721530193
4	21830	50.219925981596	0.6144412890084
4	21853	50.220149981596	0.6144390490084
4	22319	51.080256776963	0.61271883541767
4	22348	51.080480776963	0.61271659541767
4	23100	52.438778485797	0.61
4	23951	53.881467071068	0.60711462282946
4	23975	53.881691071068	0.60709222282946
4	24141	54.272772784959	0.60631005940168
4	24170	54.272996784959	0.60630781940168
4	24475	54.785373749387	0.60528306547282
4	24498	54.785597749387	0.60528082547282
4	25977	57.426010485797	0.6
4	25997	57.465288792955	0.59992144338568
4	26026	57.465512792955	0.59991920338568
4	26280	58.026195307304	0.59879783835699
4	26304	58.026419307304	0.59877543835699
4	27103	59.350821517178	0.59612663393724
4	27127	59.351045517178	0.59612439393724
4	27872	60.657804800951	0.59351087536969
4	27902	60.658028800951	0.59350863536969
4	28834	62.17092354354	0.59048284588451
4	28858	62.17114754354	0.59046044588451
4	28969	62.401370485797	0.59
4	29783	63.850320808947	0.5871020993537
4	29836	63.850544808947	0.5870998593537
4	29911	63.916269284969	0.58696841040166
4	29934	63.916493284969	0.58696617040166
4	31346	66.315651779776	0.58216785341204
4	31370	66.315875779776	0.58214545341204
4	31834	67.042836816943	0.58069153133771
4	31863	67.043060816943	0.58068929133771
4	32058	67.387706485797	0.58
4	32685	68.48171705276	0.57781197886607
4	32708	68.48194105276	0.57780973886607
4	33847	70.235352824939	0.57430291532172
4	33876	70.235576824939	0.57430067532172
4	34037	70.460380016012	0.57385106893957
4	34061	70.460604016012	0.57382866893957
4	35008	72.374938485797	0.57
4	35585	73.047164820551	0.56865554733049
4	35608	73.047388820551	0.56865330733049
4	35942	73.427868832935	0.56789234730572
4	35973	73.428092832935	0.56789010730572
4	36615	74.605108252248	0.5655360764671
4	36639	74.605332252248	0.5655136764671
4	37847	76.620384840931	0.56148357128973
4	37876	76.620608840931	0.56148133128973
4	38341	77.361274485797	0.56
4	38492	77.612612588342	0.55949732379491
4	38515	77.612836588342	0.55949508379491
4	39306	78.749836488484	0.55722108399463
4	39330	78.750060488484	0.55719868399463
4	40057	79.812900848927	0.55507300327374
4	40087	79.813124848927	0.55507076327374
4	41477	82.178060356133	0.55034089225933
4	41500	82.178284356133	0.55033865225933
4	41592	82.347610485797	0.55
4	42127	82.89456472472	0.54890609152215
4	42151	82.89478872472	0.54888369152215
4	42238	83.005416856923	0.54866243525775
4	42267	83.005640856923	0.54866019525775
4	44232	86.197932864919	0.54227561124176
4	44263	86.198156864919	0.54227337124176
4	44629	86.743508123924	0.54118266872375
4	44652	86.743732123924	0.54118042872375
4	44800	87.039292960956	0.54058930704968
4	44824	87.039516960956	0.54056690704968
4	45018	87.322970485797	0.54
4	46486	89.390448872915	0.53586504322576
4	46515	89.390672872915	0.53586280322576
4	47549	91.184021197192	0.53227610657721
4	47573	91.184245197192	0.53225370657721
4	47707	91.308955891715	0.53200428518816
4	47730	91.309179891715	0.53200204518816
4	48526	92.310202485797	0.53
4	48706	92.582964880911	0.52945447520977
4	48736	92.583188880911	0.52945223520977
4	50543	95.328749433428	0.52396111410474
4	50567	95.328973433428	0.52393871410474
4	50809	95.775480888907	0.52304569919378
4	50838	95.775704888907	0.52304345919378
4	51008	95.874403659506	0.52284606165258
4	51031	95.874627659506	0.52284382165258
4	51948	97.296538485797	0.52
4	53102	98.967996896903	0.51665708317779
4	53132	98.968220896903	0.51665484317779
4	53493	99.473477669664	0.51564432963227
4	53517	99.473701669664	0.51562192963227
4	54148	100.439851427297	0.513689630117
4	54171	100.440075427297	0.513687390117
4	55452	102.160512904899	0.5102465151618
4	55481	102.160736904899	0.5102442751618
4	55613	102.282874485797	0.51
4	56431	103.6182059059	0.50732933715979
4	56455	103.6184299059	0.50730693715979
4	57525	105.005299195088	0.50453319858142
4	57548	105.005523195088	0.50453095858142
4	57751	105.353028912895	0.5038359471458
4	57780	105.353252912895	0.5038337071458
4	59145	107.270106485797	0.5
[...]
241	24311	54.534532015726	28
241	26478	58.232400399181	28
241	27278	59.492196334658	28
241	29352	63.085081732972	28
241	30332	64.44986065359	28
241	32288	67.937763066763	28
241	33394	69.407524972522	28
241	35303	72.790444400554	28
241	36499	74.365189291454	28
241	38575	77.643125734345	28
241	39721	79.322853610386	28
241	41678	82.495807068136	28
241	42976	84.280517929318	28
241	45052	87.348488401927	28
241	46395	89.23818224825	28
241	48439	92.201169735718	28
241	49741	94.195846567182	28
241	51758	97.053851069509	28
241	53323	99.153510886114	28
241	55288	101.9065324033	28
241	56855	104.111175205046	28
241	58808	106.759213737091	28
241	60483	109.068839523978	28
241	62428	111.611895070882	28
241	64378	114.02650384291	28
241	66144	116.464576404673	28
241	68148	118.984168161842	28
241	69853	121.317257738464	28
241	72081	123.941832480774	28
241	73820	126.169939072255	28
241	76048	128.899496799706	28
241	77718	131.022620406046	28
241	80088	133.857161118638	28
241	81620	135.875301739837	28
241	84129	138.81482543757	28
241	85521	140.727983073628	28
241	88181	143.772489756502	28
241	89635	145.580664407419	28
241	92251	148.730154075434	28
241	93729	150.43334574121	28
241	96402	153.687818394366	28
241	97719	155.286027075001	28
241	100455	158.645482713298	28
241	101660	160.138708408792	28
242	1138	4.852905918826	28
242	2666	9.705587252617	28
242	4274	14.558268586408	28
242	6135	19.410949920199	28
242	8211	24.26363125399	28
242	10600	29.116312587781	28
242	13034	33.968993921572	28
242	15525	38.821675255363	28
242	18174	43.674356589154	28
242	20762	48.527037922945	28
242	23595	53.379719256736	28
242	26482	58.232400590527	28
242	29356	63.085081924318	28
242	32292	67.937763258109	28
242	35307	72.7904445919	28
242	38579	77.643125925691	28
242	41682	82.495807259482	28
242	45056	87.348488593273	28
242	48443	92.201169927064	28
242	51762	97.053851260855	28
242	55292	101.906532594646	28
242	58812	106.759213928437	28
242	62432	111.611895262228	28
242	66148	116.464576596019	28
242	69857	121.31725792981	28
242	73824	126.169939263601	28
242	77722	131.022620597392	28
242	81624	135.875301931183	28
242	85525	140.727983264974	28
242	89639	145.580664598765	28
242	93733	150.433345932556	28
242	97723	155.286027266347	28
242	101664	160.138708600138	28
243	1138	4.852905918826	28
243	2666	9.705587252617	28
243	4274	14.558268586408	28
243	6135	19.410949920199	28
243	8211	24.26363125399	28
243	10600	29.116312587781	28
243	13034	33.968993921572	28
243	15525	38.821675255363	28
243	18174	43.674356589154	28
243	20762	48.527037922945	28
243	23595	53.379719256736	28
243	26482	58.232400590527	28
243	29356	63.085081924318	28
243	32292	67.937763258109	28
243	35307	72.7904445919	28
243	38579	77.643125925691	28
243	41682	82.495807259482	28
243	45056	87.348488593273	28
243	48443	92.201169927064	28
243	51762	97.053851260855	28
243	55292	101.906532594646	28
243	58812	106.759213928437	28
243	62432	111.611895262228	28
243	66148	116.464576596019	28
243	69857	121.31725792981	28
243	73824	126.169939263601	28
243	77722	131.022620597392	28
243	81624	135.875301931183	28
243	85525	140.727983264974	28
243	89639	145.580664598765	28
243	93733	150.433345932556	28
243	97723	155.286027266347	28
243	101664	160.138708600138	28
244	1168	4.890444458858	28
244	2753	9.780888917716	28
244	4313	14.671333376574	28
244	6236	19.561777835432	28
244	8372	24.45222229429	28
244	10731	29.342666753148	28
244	13134	34.233111212006	28
244	15689	39.123555670864	28
244	18307	44.014000129722	28
244	21056	48.90444458858	28
244	23871	53.794889047438	28
244	26718	58.685333506296	28
244	29619	63.575777965154	28
244	32616	68.466222424012	28
244	35802	73.35666688287	28
244	38995	78.247111341728	28
244	42344	83.137555800586	28
244	45477	88.028000259444	28
244	48909	92.918444718302	28
244	52286	97.80888917716	28
244	55869	102.699333636018	28
244	59519	107.589778094876	28
244	63127	112.480222553734	28
244	66815	117.370667012592	28
244	70663	122.26111147145	28
244	74546	127.151555930308	28
244	78396	132.042000389166	28
245	1168	4.890444458858	0
245	2753	9.780888917716	0
245	4313	14.671333376574	0
245	6236	19.561777835432	0
245	8372	24.45222229429	0
245	10731	29.342666753148	0
245	13134	34.233111212006	0
245	15689	39.123555670864	0
245	18307	44.014000129722	0
245	21056	48.90444458858	0
245	23871	53.794889047438	0
245	26718	58.685333506296	0
245	29619	63.575777965154	0
245	32616	68.466222424012	0
245	35802	73.35666688287	0
245	38995	78.247111341728	0
245	42344	83.137555800586	0
245	45477	88.028000259444	0
245	48909	92.918444718302	0
245	52286	97.80888917716	0
245	55869	102.699333636018	0
245	59519	107.589778094876	0
245	63127	112.480222553734	0
245	66815	117.370667012592	0
245	70663	122.26111147145	0
245	74546	127.151555930308	0
245	78396	132.042000389166	0
246	1169	4.890444458858	28
246	2754	9.780888917716	28
246	4314	14.671333376574	28
246	6237	19.561777835432	28
246	8373	24.45222229429	28
246	10732	29.342666753148	28
246	13135	34.233111212006	28
246	15690	39.123555670864	28
246	18308	44.014000129722	28
246	21057	48.90444458858	28
246	23872	53.794889047438	28
246	26719	58.685333506296	28
246	29620	63.575777965154	28
246	32617	68.466222424012	28
246	35803	73.35666688287	28
246	38996	78.247111341728	28
246	42345	83.137555800586	28
246	45478	88.028000259444	28
246	48910	92.918444718302	28
246	52287	97.80888917716	28
246	55870	102.699333636018	28
246	59520	107.589778094876	28
246	63128	112.480222553734	28
246	66816	117.370667012592	28
246	70664	122.26111147145	28
246	74547	127.151555930308	28
246	78397	132.042000389166	28
247	1169	4.890444458858	1
247	1170	4.890444458858	2
247	1190	4.890668458858	1
247	1190	4.890668458858	0
247	2754	9.780888917716	1
247	2755	9.780888917716	2
247	2775	9.781112917716	1
247	2775	9.781112917716	0
247	4314	14.671333376574	1
247	4315	14.671333376574	2
247	4335	14.671557376574	1
247	4335	14.671557376574	0
247	6237	19.561777835432	1
247	6238	19.561777835432	2
247	6258	19.562001835432	1
247	6258	19.562001835432	0
247	8373	24.45222229429	1
247	8374	24.45222229429	2
247	8394	24.45244629429	1
247	8394	24.45244629429	0
247	10732	29.342666753148	1
247	10733	29.342666753148	2
247	10753	29.342890753148	1
247	10753	29.342890753148	0
247	13135	34.233111212006	1
247	13136	34.233111212006	2
247	13156	34.233335212006	1
247	13156	34.233335212006	0
247	15690	39.123555670864	1
247	15691	39.123555670864	2
247	15711	39.123779670864	1
247	15711	39.123779670864	0
247	18308	44.014000129722	1
247	18309	44.014000129722	2
247	18329	44.014224129722	1
247	18329	44.014224129722	0
247	21057	48.90444458858	1
247	21058	48.90444458858	2
247	21078	48.90466858858	1
247	21078	48.90466858858	0
247	23872	53.794889047438	1
247	23873	53.794889047438	2
247	23894	53.795113047438	1
247	23894	53.795113047438	0
247	26719	58.685333506296	1
247	26720	58.685333506296	2
247	26740	58.685557506296	1
247	26740	58.685557506296	0
247	29620	63.575777965154	1
247	29621	63.575777965154	2
247	29642	63.576001965154	1
247	29642	63.576001965154	0
247	32617	68.466222424012	1
247	32618	68.466222424012	2
247	32638	68.466446424012	1
247	32638	68.466446424012	0
247	35803	73.35666688287	1
247	35804	73.35666688287	2
247	35824	73.35689088287	1
247	35824	73.35689088287	0
247	38996	78.247111341728	1
247	38997	78.247111341728	2
247	39017	78.247335341728	1
247	39017	78.247335341728	0
247	42345	83.137555800586	1
247	42346	83.137555800586	2
247	42366	83.137779800586	1
247	42366	83.137779800586	0
247	45478	88.028000259444	1
247	45479	88.028000259444	2
247	45499	88.028224259444	1
247	45499	88.028224259444	0
247	48910	92.918444718302	1
247	48911	92.918444718302	2
247	48931	92.918668718302	1
247	48931	92.918668718302	0
247	52287	97.80888917716	1
247	52288	97.80888917716	2
247	52308	97.80911317716	1
247	52308	97.80911317716	0
247	55870	102.699333636018	1
247	55871	102.699333636018	2
247	55891	102.699557636018	1
247	55891	102.699557636018	0
247	59520	107.589778094876	1
247	59521	107.589778094876	2
247	59542	107.590002094876	1
247	59542	107.590002094876	0
247	63128	112.480222553734	1
247	63129	112.480222553734	2
247	63149	112.480446553734	1
247	63149	112.480446553734	0
247	66816	117.370667012592	1
247	66817	117.370667012592	2
247	66837	117.370891012592	1
247	66837	117.370891012592	0
247	70664	122.26111147145	1
247	70665	122.26111147145	2
247	70685	122.26133547145	1
247	70685	122.26133547145	0
247	74547	127.151555930308	1
247	74548	127.151555930308	2
247	74568	127.151779930308	1
247	74568	127.151779930308	0
247	78397	132.042000389166	1
247	78398	132.042000389166	2
247	78418	132.042224389166	1
247	78418	132.042224389166	0
248	1169	4.890444458858	28
248	2754	9.780888917716	28
248	4314	14.671333376574	28
248	6237	19.561777835432	28
248	8373	24.45222229429	28
248	10732	29.342666753148	28
248	13135	34.233111212006	28
248	15690	39.123555670864	28
248	18308	44.014000129722	28
248	21057	48.90444458858	28
248	23872	53.794889047438	28
248	26719	58.685333506296	28
248	29620	63.575777965154	28
248	32617	68.466222424012	28
248	35803	73.35666688287	28
248	38996	78.247111341728	28
248	42345	83.137555800586	28
248	45478	88.028000259444	28
248	48910	92.918444718302	28
248	52287	97.80888917716	28
248	55870	102.699333636018	28
248	59520	107.589778094876	28
248	63128	112.480222553734	28
248	66816	117.370667012592	28
248	70664	122.26111147145	28
248	74547	127.151555930308	28
248	78397	132.042000389166	28
249	1192	4.890668684924	28
249	1251	4.957888689757	28
249	2777	9.781113143782	28
249	2892	9.915553008689	28
249	4337	14.67155760264	28
249	4412	14.873217327621	28
249	6260	19.562002061498	28
249	6453	19.830881646553	28
249	8396	24.452446520356	28
249	8571	24.788545965485	28
249	10755	29.342890979214	28
249	10945	29.746210284417	28
249	13158	34.233335438072	28
249	13393	34.703874603349	28
249	15713	39.12377989693	28
249	16018	39.661538922281	28
249	18331	44.014224355788	28
249	18674	44.619203241213	28
249	21080	48.904668814646	28
249	21447	49.576867560145	28
249	23896	53.795113273504	28
249	24303	54.534531879077	28
249	26742	58.685557732362	28
249	27270	59.492196198009	28
249	29644	63.57600219122	28
249	30324	64.449860516941	28
249	32640	68.466446650078	28
249	33386	69.407524835873	28
249	35826	73.356891108936	28
249	36491	74.365189154805	28
249	39019	78.247335567794	28
249	39713	79.322853473737	28
249	42368	83.137780026652	28
249	42968	84.280517792669	28
249	45501	88.02822448551	28
249	46387	89.238182111601	28
249	48933	92.918668944368	28
249	49733	94.195846430533	28
249	52310	97.809113403226	28
249	53315	99.153510749465	28
249	55893	102.699557862084	28
249	56847	104.111175068397	28
249	59544	107.590002320942	28
249	60475	109.068839387329	28
249	63151	112.4804467798	28
249	64370	114.026503706261	28
249	66839	117.370891238658	28
249	68140	118.984168025193	28
249	70687	122.261335697516	28
249	72073	123.941832344125	28
249	74570	127.151780156374	28
249	76040	128.899496663057	28
249	78420	132.042224615232	28
249	80080	133.857160981989	28
249	84125	138.814825300921	28
249	88177	143.772489619853	28
249	92247	148.730153938785	28
249	96398	153.687818257717	28
249	100451	158.645482576649	28
250	1192	4.890668684924	28
250	1251	4.957888689757	28
250	2777	9.781113143782	28
250	2892	9.915553008689	28
250	4337	14.67155760264	28
250	4412	14.873217327621	28
250	6260	19.562002061498	28
250	6453	19.830881646553	28
250	8396	24.452446520356	28
250	8571	24.788545965485	28
250	10755	29.342890979214	28
250	10945	29.746210284417	28
250	13158	34.233335438072	28
250	13393	34.703874603349	28
250	15713	39.12377989693	28
250	16018	39.661538922281	28
250	18331	44.014224355788	28
250	18674	44.619203241213	28
250	21080	48.904668814646	28
250	21447	49.576867560145	28
250	23896	53.795113273504	28
250	24303	54.534531879077	28
250	26742	58.685557732362	28
250	27270	59.492196198009	28
250	29644	63.57600219122	28
250	30324	64.449860516941	28
250	32640	68.466446650078	28
250	33386	69.407524835873	28
250	35826	73.356891108936	28
250	36491	74.365189154805	28
250	39019	78.247335567794	28
250	39713	79.322853473737	28
250	42368	83.137780026652	28
250	42968	84.280517792669	28
250	45501	88.02822448551	28
250	46387	89.238182111601	28
250	48933	92.918668944368	28
250	49733	94.195846430533	28
250	52310	97.809113403226	28
250	53315	99.153510749465	28
250	55893	102.699557862084	28
250	56847	104.111175068397	28
250	59544	107.590002320942	28
250	60475	109.068839387329	28
250	63151	112.4804467798	28
250	64370	114.026503706261	28
250	66839	117.370891238658	28
250	68140	118.984168025193	28
250	70687	122.261335697516	28
250	72073	123.941832344125	28
250	74570	127.151780156374	28
250	76040	128.899496663057	28
250	78420	132.042224615232	28
250	80080	133.857160981989	28
250	84125	138.814825300921	28
250	88177	143.772489619853	28
250	92247	148.730153938785	28
250	96398	153.687818257717	28
250	100451	158.645482576649	28
251	1227	4.957664318932	28
251	2868	9.915328637864	28
251	4388	14.872992956796	28
251	6429	19.830657275728	28
251	8547	24.78832159466	28
251	10921	29.745985913592	28
251	13369	34.703650232524	28
251	15994	39.661314551456	28
251	18648	44.618978870388	28
251	21423	49.57664318932	28
251	24279	54.534307508252	28
251	27246	59.491971827184	28
251	30300	64.449636146116	28
251	33362	69.407300465048	28
251	36467	74.36496478398	28
251	39689	79.322629102912	28
251	42944	84.280293421844	28
251	46362	89.237957740776	28
251	49709	94.195622059708	28
251	53291	99.15328637864	28
251	56823	104.110950697572	28
251	60451	109.068615016504	28
251	64346	114.026279335436	28
251	68115	118.983943654368	28
251	72049	123.9416079733	28
251	76016	128.899272292232	28
251	80055	133.856936611164	28
251	84101	138.814600930096	28
251	88153	143.772265249028	28
251	92223	148.72992956796	28
251	96374	153.687593886892	28
251	100427	158.645258205824	28
252	1227	4.957664318932	0
252	2868	9.915328637864	0
252	4388	14.872992956796	0
252	6429	19.830657275728	0
252	8547	24.78832159466	0
252	10921	29.745985913592	0
252	13369	34.703650232524	0
252	15994	39.661314551456	0
252	18648	44.618978870388	0
252	21423	49.57664318932	0
252	24279	54.534307508252	0
252	27246	59.491971827184	0
252	30300	64.449636146116	0
252	33362	69.407300465048	0
252	36467	74.36496478398	0
252	39689	79.322629102912	0
252	42944	84.280293421844	0
252	46362	89.237957740776	0
252	49709	94.195622059708	0
252	53291	99.15328637864	0
252	56823	104.110950697572	0
252	60451	109.068615016504	0
252	64346	114.026279335436	0
252	68115	118.983943654368	0
252	72049	123.9416079733	0
252	76016	128.899272292232	0
252	80055	133.856936611164	0
252	84101	138.814600930096	0
252	88153	143.772265249028	0
252	92223	148.72992956796	0
252	96374	153.687593886892	0
252	100427	158.645258205824	0
253	1228	4.957664318932	28
253	2869	9.915328637864	28
253	4389	14.872992956796	28
253	6430	19.830657275728	28
253	8548	24.78832159466	28
253	10922	29.745985913592	28
253	13370	34.703650232524	28
253	15995	39.661314551456	28
253	18649	44.618978870388	28
253	21424	49.57664318932	28
253	24280	54.534307508252	28
253	27247	59.491971827184	28
253	30301	64.449636146116	28
253	33363	69.407300465048	28
253	36468	74.36496478398	28
253	39690	79.322629102912	28
253	42945	84.280293421844	28
253	46363	89.237957740776	28
253	49710	94.195622059708	28
253	53292	99.15328637864	28
253	56824	104.110950697572	28
253	60452	109.068615016504	28
253	64347	114.026279335436	28
253	68116	118.983943654368	28
253	72050	123.9416079733	28
253	76017	128.899272292232	28
253	80056	133.856936611164	28
253	84102	138.814600930096	28
253	88154	143.772265249028	28
253	92224	148.72992956796	28
253	96375	153.687593886892	28
253	100428	158.645258205824	28
254	1228	4.957664318932	1
254	1229	4.957664318932	2
254	1249	4.957888318932	1
254	1249	4.957888318932	0
254	2869	9.915328637864	1
254	2870	9.915328637864	2
254	2890	9.915552637864	1
254	2890	9.915552637864	0
254	4389	14.872992956796	1
254	4390	14.872992956796	2
254	4410	14.873216956796	1
254	4410	14.873216956796	0
254	6430	19.830657275728	1
254	6431	19.830657275728	2
254	6451	19.830881275728	1
254	6451	19.830881275728	0
254	8548	24.78832159466	1
254	8549	24.78832159466	2
254	8569	24.78854559466	1
254	8569	24.78854559466	0
254	10922	29.745985913592	1
254	10923	29.745985913592	2
254	10943	29.746209913592	1
254	10943	29.746209913592	0
254	13370	34.703650232524	1
254	13371	34.703650232524	2
254	13391	34.703874232524	1
254	13391	34.703874232524	0
254	15995	39.661314551456	1
254	15996	39.661314551456	2
254	16016	39.661538551456	1
254	16016	39.661538551456	0
254	18649	44.618978870388	1
254	18650	44.618978870388	2
254	18672	44.619202870388	1
254	18672	44.619202870388	0
254	21424	49.57664318932	1
254	21425	49.57664318932	2
254	21445	49.57686718932	1
254	21445	49.57686718932	0
254	24280	54.534307508252	1
254	24281	54.534307508252	2
254	24301	54.534531508252	1
254	24301	54.534531508252	0
254	27247	59.491971827184	1
254	27248	59.491971827184	2
254	27268	59.492195827184	1
254	27268	59.492195827184	0
254	30301	64.449636146116	1
254	30302	64.449636146116	2
254	30322	64.449860146116	1
254	30322	64.449860146116	0
254	33363	69.407300465048	1
254	33364	69.407300465048	2
254	33384	69.407524465048	1
254	33384	69.407524465048	0
254	36468	74.36496478398	1
254	36469	74.36496478398	2
254	36489	74.36518878398	1
254	36489	74.36518878398	0
254	39690	79.322629102912	1
254	39691	79.322629102912	2
254	39711	79.322853102912	1
254	39711	79.322853102912	0
254	42945	84.280293421844	1
254	42946	84.280293421844	2
254	42966	84.280517421844	1
254	42966	84.280517421844	0
254	46363	89.237957740776	1
254	46364	89.237957740776	2
254	46385	89.238181740776	1
254	46385	89.238181740776	0
254	49710	94.195622059708	1
254	49711	94.195622059708	2
254	49731	94.195846059708	1
254	49731	94.195846059708	0
254	53292	99.15328637864	1
254	53293	99.15328637864	2
254	53313	99.15351037864	1
254	53313	99.15351037864	0
254	56824	104.110950697572	1
254	56825	104.110950697572	2
254	56845	104.111174697572	1
254	56845	104.111174697572	0
254	60452	109.068615016504	1
254	60453	109.068615016504	2
254	60473	109.068839016504	1
254	60473	109.068839016504	0
254	64347	114.026279335436	1
254	64348	114.026279335436	2
254	64368	114.026503335436	1
254	64368	114.026503335436	0
254	68116	118.983943654368	1
254	68117	118.983943654368	2
254	68138	118.984167654368	1
254	68138	118.984167654368	0
254	72050	123.9416079733	1
254	72051	123.9416079733	2
254	72071	123.9418319733	1
254	72071	123.9418319733	0
254	76017	128.899272292232	1
254	76018	128.899272292232	2
254	76038	128.899496292232	1
254	76038	128.899496292232	0
254	80056	133.856936611164	1
254	80057	133.856936611164	2
254	80078	133.857160611164	1
254	80078	133.857160611164	0
254	84102	138.814600930096	1
254	84103	138.814600930096	2
254	84123	138.814824930096	1
254	84123	138.814824930096	0
254	88154	143.772265249028	1
254	88155	143.772265249028	2
254	88175	143.772489249028	1
254	88175	143.772489249028	0
254	92224	148.72992956796	1
254	92225	148.72992956796	2
254	92245	148.73015356796	1
254	92245	148.73015356796	0
254	96375	153.687593886892	1
254	96376	153.687593886892	2
254	96396	153.687817886892	1
254	96396	153.687817886892	0
254	100428	158.645258205824	1
254	100429	158.645258205824	2
254	100449	158.645482205824	1
254	100449	158.645482205824	0
255	1228	4.957664318932	28
255	2869	9.915328637864	28
255	4389	14.872992956796	28
255	6430	19.830657275728	28
255	8548	24.78832159466	28
255	10922	29.745985913592	28
255	13370	34.703650232524	28
255	15995	39.661314551456	28
255	18649	44.618978870388	28
255	21424	49.57664318932	28
255	24280	54.534307508252	28
255	27247	59.491971827184	28
255	30301	64.449636146116	28
255	33363	69.407300465048	28
255	36468	74.36496478398	28
255	39690	79.322629102912	28
255	42945	84.280293421844	28
255	46363	89.237957740776	28
255	49710	94.195622059708	28
255	53292	99.15328637864	28
255	56824	104.110950697572	28
255	60452	109.068615016504	28
255	64347	114.026279335436	28
255	68116	118.983943654368	28
255	72050	123.9416079733	28
255	76017	128.899272292232	28
255	80056	133.856936611164	28
255	84102	138.814600930096	28
255	88154	143.772265249028	28
255	92224	148.72992956796	28
255	96375	153.687593886892	28
255	100428	158.645258205824	28

